4k77_ligand
     RDKit          3D

 34 36  0  0  0  0  0  0  0  0999 V2000
   -6.4990    4.4240   11.3870 O   0  0  0  0  0  0  0  0  0  0  0  0
   -5.5890    4.9690   10.7700 C   0  0  0  0  0  0  0  0  0  0  0  0
   -5.7800    6.2070   10.1830 N   0  0  0  0  0  0  0  0  0  0  0  0
   -4.8270    6.8800    9.4690 C   0  0  0  0  0  0  0  0  0  0  0  0
   -3.6000    6.3750    9.3040 C   0  0  0  0  0  0  0  0  0  0  0  0
   -3.2660    5.0770    9.9040 C   0  0  0  0  0  0  0  0  0  0  0  0
   -2.0200    4.4580    9.8170 C   0  0  0  0  0  0  0  0  0  0  0  0
   -0.9730    5.0980    9.1300 N   0  0  0  0  0  0  0  0  0  0  0  0
   -0.7450    4.7210    7.7250 C   0  0  0  0  0  0  0  0  0  0  0  0
   -0.5380    6.0110    6.9010 C   0  0  0  0  0  0  0  0  0  0  0  0
    0.9210    6.3110    6.5480 C   0  0  0  0  0  0  0  0  0  0  0  0
    1.8740    5.9100    7.6630 C   0  0  0  0  0  0  0  0  0  0  0  0
    1.7890    4.4180    7.9820 C   0  0  0  0  0  0  0  0  0  0  0  0
    0.4550    3.7770    7.5860 C   0  0  0  0  0  0  0  0  0  0  0  0
   -1.8060    3.2360   10.3440 N   0  0  0  0  0  0  0  0  0  0  0  0
   -2.8200    2.6430   10.9910 C   0  0  0  0  0  0  0  0  0  0  0  0
   -4.0380    3.1480   11.1660 N   0  0  0  0  0  0  0  0  0  0  0  0
   -4.2290    4.3630   10.6060 C   0  0  0  0  0  0  0  0  0  0  0  0
   -6.7090    6.5990   10.2970 H   0  0  0  0  0  0  0  0  0  0  0  0
   -5.0745    7.8543    9.0225 H   0  0  0  0  0  0  0  0  0  0  0  0
   -2.8466    6.9275    8.7233 H   0  0  0  0  0  0  0  0  0  0  0  0
   -0.1210    5.0500    9.6830 H   0  0  0  0  0  0  0  0  0  0  0  0
   -1.6209    4.1744    7.3455 H   0  0  0  0  0  0  0  0  0  0  0  0
   -1.1056    5.9148    5.9637 H   0  0  0  0  0  0  0  0  0  0  0  0
   -0.8853    6.8436    7.5304 H   0  0  0  0  0  0  0  0  0  0  0  0
    1.1870    5.7548    5.6370 H   0  0  0  0  0  0  0  0  0  0  0  0
    1.0161    7.3962    6.3954 H   0  0  0  0  0  0  0  0  0  0  0  0
    2.9023    6.1487    7.3538 H   0  0  0  0  0  0  0  0  0  0  0  0
    1.5903    6.4669    8.5682 H   0  0  0  0  0  0  0  0  0  0  0  0
    2.5961    3.9012    7.4421 H   0  0  0  0  0  0  0  0  0  0  0  0
    1.8817    4.3175    9.0735 H   0  0  0  0  0  0  0  0  0  0  0  0
    0.5228    3.4529    6.5370 H   0  0  0  0  0  0  0  0  0  0  0  0
    0.2848    2.9356    8.2738 H   0  0  0  0  0  0  0  0  0  0  0  0
   -2.6266    1.6471   11.4162 H   0  0  0  0  0  0  0  0  0  0  0  0
  1  2  2  0
  2  3  1  0
  3  4  1  0
  4  5  2  0
  5  6  1  0
  6  7  2  0
  7  8  1  0
  8  9  1  0
  9 10  1  0
 10 11  1  0
 11 12  1  0
 12 13  1  0
 13 14  1  0
  7 15  1  0
 15 16  2  0
 16 17  1  0
 17 18  2  0
 18  2  1  0
 18  6  1  0
 14  9  1  0
  3 19  1  0
  4 20  1  0
  5 21  1  0
  8 22  1  0
  9 23  1  0
 10 24  1  0
 10 25  1  0
 11 26  1  0
 11 27  1  0
 12 28  1  0
 12 29  1  0
 13 30  1  0
 13 31  1  0
 14 32  1  0
 14 33  1  0
 16 34  1  0
M  END
>  <meeko>  (1) 
{"is_sidechain": [false], "free_energy": -7.659, "intermolecular_energy": -8.555, "internal_energy": -0.432}

$$$$
4k77_ligand
     RDKit          3D

 34 36  0  0  0  0  0  0  0  0999 V2000
   -4.8780    7.8680    8.5560 O   0  0  0  0  0  0  0  0  0  0  0  0
   -4.6760    6.8500    9.2100 C   0  0  0  0  0  0  0  0  0  0  0  0
   -5.6990    6.2620    9.9310 N   0  0  0  0  0  0  0  0  0  0  0  0
   -5.5590    5.1360   10.6950 C   0  0  0  0  0  0  0  0  0  0  0  0
   -4.3880    4.4980   10.7810 C   0  0  0  0  0  0  0  0  0  0  0  0
   -3.2290    5.0120   10.0390 C   0  0  0  0  0  0  0  0  0  0  0  0
   -1.9650    4.4260   10.0350 C   0  0  0  0  0  0  0  0  0  0  0  0
   -1.7430    3.2450   10.7670 N   0  0  0  0  0  0  0  0  0  0  0  0
   -1.2380    2.0720   10.0360 C   0  0  0  0  0  0  0  0  0  0  0  0
   -0.9300    0.9550   11.0580 C   0  0  0  0  0  0  0  0  0  0  0  0
   -1.9850   -0.1510   11.1270 C   0  0  0  0  0  0  0  0  0  0  0  0
   -3.3930    0.3880   10.9300 C   0  0  0  0  0  0  0  0  0  0  0  0
   -3.5590    1.0790    9.5770 C   0  0  0  0  0  0  0  0  0  0  0  0
   -2.2440    1.5940    8.9810 C   0  0  0  0  0  0  0  0  0  0  0  0
   -0.9330    4.9890    9.3760 N   0  0  0  0  0  0  0  0  0  0  0  0
   -1.1660    6.1160    8.6880 C   0  0  0  0  0  0  0  0  0  0  0  0
   -2.3340    6.7460    8.5910 N   0  0  0  0  0  0  0  0  0  0  0  0
   -3.3410    6.1710    9.2820 C   0  0  0  0  0  0  0  0  0  0  0  0
   -6.5930    6.7390    9.8770 H   0  0  0  0  0  0  0  0  0  0  0  0
   -6.4267    4.7484   11.2490 H   0  0  0  0  0  0  0  0  0  0  0  0
   -4.2927    3.5953   11.4023 H   0  0  0  0  0  0  0  0  0  0  0  0
   -2.5660    3.0270   11.3220 H   0  0  0  0  0  0  0  0  0  0  0  0
   -0.3196    2.3447    9.4955 H   0  0  0  0  0  0  0  0  0  0  0  0
    0.0317    0.4958   10.7855 H   0  0  0  0  0  0  0  0  0  0  0  0
   -0.9133    1.4333   12.0484 H   0  0  0  0  0  0  0  0  0  0  0  0
   -1.7752   -0.8908   10.3404 H   0  0  0  0  0  0  0  0  0  0  0  0
   -1.9335   -0.6061   12.1271 H   0  0  0  0  0  0  0  0  0  0  0  0
   -4.1049   -0.4483   10.9910 H   0  0  0  0  0  0  0  0  0  0  0  0
   -3.5843    1.1326   11.7168 H   0  0  0  0  0  0  0  0  0  0  0  0
   -4.0013    0.3598    8.8720 H   0  0  0  0  0  0  0  0  0  0  0  0
   -4.2019    1.9562    9.7415 H   0  0  0  0  0  0  0  0  0  0  0  0
   -1.7817    0.7802    8.4030 H   0  0  0  0  0  0  0  0  0  0  0  0
   -2.4921    2.4632    8.3542 H   0  0  0  0  0  0  0  0  0  0  0  0
   -0.3130    6.5608    8.1546 H   0  0  0  0  0  0  0  0  0  0  0  0
  1  2  2  0
  2  3  1  0
  3  4  1  0
  4  5  2  0
  5  6  1  0
  6  7  2  0
  7  8  1  0
  8  9  1  0
  9 10  1  0
 10 11  1  0
 11 12  1  0
 12 13  1  0
 13 14  1  0
  7 15  1  0
 15 16  2  0
 16 17  1  0
 17 18  2  0
 18  2  1  0
 18  6  1  0
 14  9  1  0
  3 19  1  0
  4 20  1  0
  5 21  1  0
  8 22  1  0
  9 23  1  0
 10 24  1  0
 10 25  1  0
 11 26  1  0
 11 27  1  0
 12 28  1  0
 12 29  1  0
 13 30  1  0
 13 31  1  0
 14 32  1  0
 14 33  1  0
 16 34  1  0
M  END
>  <meeko>  (2) 
{"is_sidechain": [false], "free_energy": -7.412, "intermolecular_energy": -8.027, "internal_energy": -0.684}

$$$$
4k77_ligand
     RDKit          3D

 34 36  0  0  0  0  0  0  0  0999 V2000
   -6.8520    4.2060   11.5920 O   0  0  0  0  0  0  0  0  0  0  0  0
   -5.6800    4.0370   11.2690 C   0  0  0  0  0  0  0  0  0  0  0  0
   -5.0180    2.8720   11.6100 N   0  0  0  0  0  0  0  0  0  0  0  0
   -3.7120    2.6060   11.3020 C   0  0  0  0  0  0  0  0  0  0  0  0
   -2.9720    3.4780   10.6090 C   0  0  0  0  0  0  0  0  0  0  0  0
   -3.5720    4.7430   10.1660 C   0  0  0  0  0  0  0  0  0  0  0  0
   -2.9100    5.7200    9.4260 C   0  0  0  0  0  0  0  0  0  0  0  0
   -1.5750    5.5120    9.0360 N   0  0  0  0  0  0  0  0  0  0  0  0
   -1.3200    5.1550    7.6310 C   0  0  0  0  0  0  0  0  0  0  0  0
   -0.5840    6.3310    6.9540 C   0  0  0  0  0  0  0  0  0  0  0  0
    0.9210    6.1190    6.7720 C   0  0  0  0  0  0  0  0  0  0  0  0
    1.5340    5.3510    7.9320 C   0  0  0  0  0  0  0  0  0  0  0  0
    0.9050    3.9690    8.1020 C   0  0  0  0  0  0  0  0  0  0  0  0
   -0.5080    3.8580    7.5220 C   0  0  0  0  0  0  0  0  0  0  0  0
   -3.5110    6.8840    9.1060 N   0  0  0  0  0  0  0  0  0  0  0  0
   -4.7820    7.0630    9.4900 C   0  0  0  0  0  0  0  0  0  0  0  0
   -5.5240    6.1920   10.1690 N   0  0  0  0  0  0  0  0  0  0  0  0
   -4.8880    5.0460   10.4960 C   0  0  0  0  0  0  0  0  0  0  0  0
   -5.5670    2.2030   12.1400 H   0  0  0  0  0  0  0  0  0  0  0  0
   -3.2623    1.6574   11.6304 H   0  0  0  0  0  0  0  0  0  0  0  0
   -1.9223    3.2496   10.3727 H   0  0  0  0  0  0  0  0  0  0  0  0
   -1.1260    4.8700    9.6830 H   0  0  0  0  0  0  0  0  0  0  0  0
   -2.2768    4.9725    7.1199 H   0  0  0  0  0  0  0  0  0  0  0  0
   -1.0308    6.4900    5.9615 H   0  0  0  0  0  0  0  0  0  0  0  0
   -0.6989    7.1974    7.6219 H   0  0  0  0  0  0  0  0  0  0  0  0
    1.0900    5.5539    5.8435 H   0  0  0  0  0  0  0  0  0  0  0  0
    1.4001    7.1083    6.7295 H   0  0  0  0  0  0  0  0  0  0  0  0
    2.6116    5.2301    7.7474 H   0  0  0  0  0  0  0  0  0  0  0  0
    1.3488    5.9233    8.8530 H   0  0  0  0  0  0  0  0  0  0  0  0
    1.5462    3.2315    7.5970 H   0  0  0  0  0  0  0  0  0  0  0  0
    0.8231    3.7849    9.1834 H   0  0  0  0  0  0  0  0  0  0  0  0
   -0.4273    3.5865    6.4591 H   0  0  0  0  0  0  0  0  0  0  0  0
   -1.0389    3.0946    8.1096 H   0  0  0  0  0  0  0  0  0  0  0  0
   -5.2557    8.0180    9.2189 H   0  0  0  0  0  0  0  0  0  0  0  0
  1  2  2  0
  2  3  1  0
  3  4  1  0
  4  5  2  0
  5  6  1  0
  6  7  2  0
  7  8  1  0
  8  9  1  0
  9 10  1  0
 10 11  1  0
 11 12  1  0
 12 13  1  0
 13 14  1  0
  7 15  1  0
 15 16  2  0
 16 17  1  0
 17 18  2  0
 18  2  1  0
 18  6  1  0
 14  9  1  0
  3 19  1  0
  4 20  1  0
  5 21  1  0
  8 22  1  0
  9 23  1  0
 10 24  1  0
 10 25  1  0
 11 26  1  0
 11 27  1  0
 12 28  1  0
 12 29  1  0
 13 30  1  0
 13 31  1  0
 14 32  1  0
 14 33  1  0
 16 34  1  0
M  END
>  <meeko>  (3) 
{"is_sidechain": [false], "free_energy": -7.284, "intermolecular_energy": -8.095, "internal_energy": -0.473}

$$$$
4k77_ligand
     RDKit          3D

 34 36  0  0  0  0  0  0  0  0999 V2000
   -6.2450    2.7990   12.4990 O   0  0  0  0  0  0  0  0  0  0  0  0
   -5.6890    3.4920   11.6530 C   0  0  0  0  0  0  0  0  0  0  0  0
   -6.2010    4.7300   11.3100 N   0  0  0  0  0  0  0  0  0  0  0  0
   -5.6530    5.5610   10.3720 C   0  0  0  0  0  0  0  0  0  0  0  0
   -4.5360    5.2270    9.7180 C   0  0  0  0  0  0  0  0  0  0  0  0
   -3.8810    3.9460   10.0150 C   0  0  0  0  0  0  0  0  0  0  0  0
   -2.7070    3.4970    9.4140 C   0  0  0  0  0  0  0  0  0  0  0  0
   -2.0580    4.3060    8.4630 N   0  0  0  0  0  0  0  0  0  0  0  0
   -1.0530    5.2640    8.9510 C   0  0  0  0  0  0  0  0  0  0  0  0
    0.2920    4.9580    8.2550 C   0  0  0  0  0  0  0  0  0  0  0  0
    0.6470    5.9130    7.1140 C   0  0  0  0  0  0  0  0  0  0  0  0
   -0.5800    6.3490    6.3300 C   0  0  0  0  0  0  0  0  0  0  0  0
   -1.6000    7.0680    7.2130 C   0  0  0  0  0  0  0  0  0  0  0  0
   -1.4900    6.7120    8.6990 C   0  0  0  0  0  0  0  0  0  0  0  0
   -2.1960    2.2810    9.6950 N   0  0  0  0  0  0  0  0  0  0  0  0
   -2.8320    1.5260   10.6020 C   0  0  0  0  0  0  0  0  0  0  0  0
   -3.9380    1.8610   11.2620 N   0  0  0  0  0  0  0  0  0  0  0  0
   -4.4380    3.0740   10.9410 C   0  0  0  0  0  0  0  0  0  0  0  0
   -7.0520    4.9940   11.7960 H   0  0  0  0  0  0  0  0  0  0  0  0
   -6.1405    6.5221   10.1517 H   0  0  0  0  0  0  0  0  0  0  0  0
   -4.1109    5.9056    8.9638 H   0  0  0  0  0  0  0  0  0  0  0  0
   -2.7490    4.7470    7.8620 H   0  0  0  0  0  0  0  0  0  0  0  0
   -0.9410    5.1543   10.0398 H   0  0  0  0  0  0  0  0  0  0  0  0
    1.0900    5.0130    9.0101 H   0  0  0  0  0  0  0  0  0  0  0  0
    0.1923    3.9583    7.8070 H   0  0  0  0  0  0  0  0  0  0  0  0
    1.1333    6.8047    7.5363 H   0  0  0  0  0  0  0  0  0  0  0  0
    1.3183    5.3811    6.4238 H   0  0  0  0  0  0  0  0  0  0  0  0
   -0.2639    7.0301    5.5261 H   0  0  0  0  0  0  0  0  0  0  0  0
   -1.0602    5.4471    5.9226 H   0  0  0  0  0  0  0  0  0  0  0  0
   -1.4501    8.1523    7.1040 H   0  0  0  0  0  0  0  0  0  0  0  0
   -2.5972    6.7456    6.8789 H   0  0  0  0  0  0  0  0  0  0  0  0
   -0.7536    7.3838    9.1643 H   0  0  0  0  0  0  0  0  0  0  0  0
   -2.4937    6.8271    9.1342 H   0  0  0  0  0  0  0  0  0  0  0  0
   -2.3998    0.5384   10.8209 H   0  0  0  0  0  0  0  0  0  0  0  0
  1  2  2  0
  2  3  1  0
  3  4  1  0
  4  5  2  0
  5  6  1  0
  6  7  2  0
  7  8  1  0
  8  9  1  0
  9 10  1  0
 10 11  1  0
 11 12  1  0
 12 13  1  0
 13 14  1  0
  7 15  1  0
 15 16  2  0
 16 17  1  0
 17 18  2  0
 18  2  1  0
 18  6  1  0
 14  9  1  0
  3 19  1  0
  4 20  1  0
  5 21  1  0
  8 22  1  0
  9 23  1  0
 10 24  1  0
 10 25  1  0
 11 26  1  0
 11 27  1  0
 12 28  1  0
 12 29  1  0
 13 30  1  0
 13 31  1  0
 14 32  1  0
 14 33  1  0
 16 34  1  0
M  END
>  <meeko>  (4) 
{"is_sidechain": [false], "free_energy": -7.215, "intermolecular_energy": -8.084, "internal_energy": -0.406}

$$$$
4k77_ligand
     RDKit          3D

 34 36  0  0  0  0  0  0  0  0999 V2000
   -1.6630   -2.3200   10.3320 O   0  0  0  0  0  0  0  0  0  0  0  0
   -2.0780   -1.1850   10.1180 C   0  0  0  0  0  0  0  0  0  0  0  0
   -3.3590   -0.8230   10.4930 N   0  0  0  0  0  0  0  0  0  0  0  0
   -3.9060    0.4140   10.2830 C   0  0  0  0  0  0  0  0  0  0  0  0
   -3.2050    1.3910    9.6980 C   0  0  0  0  0  0  0  0  0  0  0  0
   -1.8210    1.1360    9.2770 C   0  0  0  0  0  0  0  0  0  0  0  0
   -0.9880    2.0760    8.6760 C   0  0  0  0  0  0  0  0  0  0  0  0
   -1.4590    3.3830    8.4540 N   0  0  0  0  0  0  0  0  0  0  0  0
   -0.9690    4.4470    9.3460 C   0  0  0  0  0  0  0  0  0  0  0  0
   -0.9830    5.7810    8.5670 C   0  0  0  0  0  0  0  0  0  0  0  0
   -2.1540    6.7040    8.9110 C   0  0  0  0  0  0  0  0  0  0  0  0
   -3.4310    5.9280    9.1950 C   0  0  0  0  0  0  0  0  0  0  0  0
   -3.2660    4.9600   10.3660 C   0  0  0  0  0  0  0  0  0  0  0  0
   -1.8150    4.5420   10.6220 C   0  0  0  0  0  0  0  0  0  0  0  0
    0.2530    1.7500    8.2620 N   0  0  0  0  0  0  0  0  0  0  0  0
    0.6810    0.4990    8.4800 C   0  0  0  0  0  0  0  0  0  0  0  0
   -0.0100   -0.4720    9.0720 N   0  0  0  0  0  0  0  0  0  0  0  0
   -1.2580   -0.1220    9.4530 C   0  0  0  0  0  0  0  0  0  0  0  0
   -3.9030   -1.5570   10.9350 H   0  0  0  0  0  0  0  0  0  0  0  0
   -4.9410    0.6079   10.6012 H   0  0  0  0  0  0  0  0  0  0  0  0
   -3.6613    2.3782    9.5333 H   0  0  0  0  0  0  0  0  0  0  0  0
   -2.4730    3.3740    8.3890 H   0  0  0  0  0  0  0  0  0  0  0  0
    0.0574    4.2140    9.6657 H   0  0  0  0  0  0  0  0  0  0  0  0
   -0.0475    6.3166    8.7859 H   0  0  0  0  0  0  0  0  0  0  0  0
   -1.0910    5.5214    7.5036 H   0  0  0  0  0  0  0  0  0  0  0  0
   -1.8913    7.2928    9.8022 H   0  0  0  0  0  0  0  0  0  0  0  0
   -2.3389    7.3539    8.0430 H   0  0  0  0  0  0  0  0  0  0  0  0
   -4.2337    6.6410    9.4344 H   0  0  0  0  0  0  0  0  0  0  0  0
   -3.6757    5.3382    8.2993 H   0  0  0  0  0  0  0  0  0  0  0  0
   -3.6526    5.4452   11.2743 H   0  0  0  0  0  0  0  0  0  0  0  0
   -3.8220    4.0467   10.1077 H   0  0  0  0  0  0  0  0  0  0  0  0
   -1.3527    5.2824   11.2914 H   0  0  0  0  0  0  0  0  0  0  0  0
   -1.8427    3.5361   11.0663 H   0  0  0  0  0  0  0  0  0  0  0  0
    1.6969    0.2520    8.1382 H   0  0  0  0  0  0  0  0  0  0  0  0
  1  2  2  0
  2  3  1  0
  3  4  1  0
  4  5  2  0
  5  6  1  0
  6  7  2  0
  7  8  1  0
  8  9  1  0
  9 10  1  0
 10 11  1  0
 11 12  1  0
 12 13  1  0
 13 14  1  0
  7 15  1  0
 15 16  2  0
 16 17  1  0
 17 18  2  0
 18  2  1  0
 18  6  1  0
 14  9  1  0
  3 19  1  0
  4 20  1  0
  5 21  1  0
  8 22  1  0
  9 23  1  0
 10 24  1  0
 10 25  1  0
 11 26  1  0
 11 27  1  0
 12 28  1  0
 12 29  1  0
 13 30  1  0
 13 31  1  0
 14 32  1  0
 14 33  1  0
 16 34  1  0
M  END
>  <meeko>  (5) 
{"is_sidechain": [false], "free_energy": -7.115, "intermolecular_energy": -7.848, "internal_energy": -0.531}

$$$$
4k77_ligand
     RDKit          3D

 34 36  0  0  0  0  0  0  0  0999 V2000
    3.2280    2.6540    8.9020 O   0  0  0  0  0  0  0  0  0  0  0  0
    2.2160    3.3170    8.6990 C   0  0  0  0  0  0  0  0  0  0  0  0
    2.2730    4.4780    7.9510 N   0  0  0  0  0  0  0  0  0  0  0  0
    1.1980    5.2820    7.6860 C   0  0  0  0  0  0  0  0  0  0  0  0
   -0.0240    4.9740    8.1330 C   0  0  0  0  0  0  0  0  0  0  0  0
   -0.2190    3.7480    8.9190 C   0  0  0  0  0  0  0  0  0  0  0  0
   -1.4430    3.3140    9.4220 C   0  0  0  0  0  0  0  0  0  0  0  0
   -2.6060    4.0630    9.1660 N   0  0  0  0  0  0  0  0  0  0  0  0
   -3.1290    4.9070   10.2530 C   0  0  0  0  0  0  0  0  0  0  0  0
   -3.3480    6.3330    9.7020 C   0  0  0  0  0  0  0  0  0  0  0  0
   -4.8070    6.6760    9.3920 C   0  0  0  0  0  0  0  0  0  0  0  0
   -5.5730    5.4800    8.8480 C   0  0  0  0  0  0  0  0  0  0  0  0
   -5.5880    4.3120    9.8340 C   0  0  0  0  0  0  0  0  0  0  0  0
   -4.4270    4.3320   10.8330 C   0  0  0  0  0  0  0  0  0  0  0  0
   -1.5340    2.2070   10.1860 N   0  0  0  0  0  0  0  0  0  0  0  0
   -0.4120    1.5100   10.4210 C   0  0  0  0  0  0  0  0  0  0  0  0
    0.8030    1.8080    9.9670 N   0  0  0  0  0  0  0  0  0  0  0  0
    0.8650    2.9350    9.2250 C   0  0  0  0  0  0  0  0  0  0  0  0
    3.1960    4.7260    7.6100 H   0  0  0  0  0  0  0  0  0  0  0  0
    1.3417    6.1983    7.0946 H   0  0  0  0  0  0  0  0  0  0  0  0
   -0.8768    5.6334    7.9140 H   0  0  0  0  0  0  0  0  0  0  0  0
   -3.3210    3.4600    8.7700 H   0  0  0  0  0  0  0  0  0  0  0  0
   -2.4012    4.9356   11.0773 H   0  0  0  0  0  0  0  0  0  0  0  0
   -2.9775    7.0506   10.4488 H   0  0  0  0  0  0  0  0  0  0  0  0
   -2.8042    6.3867    8.7474 H   0  0  0  0  0  0  0  0  0  0  0  0
   -5.2948    7.0190   10.3164 H   0  0  0  0  0  0  0  0  0  0  0  0
   -4.8139    7.4614    8.6218 H   0  0  0  0  0  0  0  0  0  0  0  0
   -6.6098    5.7855    8.6438 H   0  0  0  0  0  0  0  0  0  0  0  0
   -5.0690    5.1430    7.9302 H   0  0  0  0  0  0  0  0  0  0  0  0
   -6.5317    4.3463   10.3981 H   0  0  0  0  0  0  0  0  0  0  0  0
   -5.4853    3.3909    9.2415 H   0  0  0  0  0  0  0  0  0  0  0  0
   -4.7227    4.9440   11.6979 H   0  0  0  0  0  0  0  0  0  0  0  0
   -4.2218    3.2876   11.1107 H   0  0  0  0  0  0  0  0  0  0  0  0
   -0.5048    0.6097   11.0462 H   0  0  0  0  0  0  0  0  0  0  0  0
  1  2  2  0
  2  3  1  0
  3  4  1  0
  4  5  2  0
  5  6  1  0
  6  7  2  0
  7  8  1  0
  8  9  1  0
  9 10  1  0
 10 11  1  0
 11 12  1  0
 12 13  1  0
 13 14  1  0
  7 15  1  0
 15 16  2  0
 16 17  1  0
 17 18  2  0
 18  2  1  0
 18  6  1  0
 14  9  1  0
  3 19  1  0
  4 20  1  0
  5 21  1  0
  8 22  1  0
  9 23  1  0
 10 24  1  0
 10 25  1  0
 11 26  1  0
 11 27  1  0
 12 28  1  0
 12 29  1  0
 13 30  1  0
 13 31  1  0
 14 32  1  0
 14 33  1  0
 16 34  1  0
M  END
>  <meeko>  (6) 
{"is_sidechain": [false], "free_energy": -7.082, "intermolecular_energy": -7.893, "internal_energy": -0.449}

$$$$
4k77_ligand
     RDKit          3D

 34 36  0  0  0  0  0  0  0  0999 V2000
    1.0830   -0.9630    8.8580 O   0  0  0  0  0  0  0  0  0  0  0  0
    0.0760   -0.2660    8.9270 C   0  0  0  0  0  0  0  0  0  0  0  0
   -1.1390   -0.8180    9.2920 N   0  0  0  0  0  0  0  0  0  0  0  0
   -2.3110   -0.1190    9.3840 C   0  0  0  0  0  0  0  0  0  0  0  0
   -2.3540    1.1950    9.1370 C   0  0  0  0  0  0  0  0  0  0  0  0
   -1.1220    1.9020    8.7650 C   0  0  0  0  0  0  0  0  0  0  0  0
   -1.0380    3.2680    8.5030 C   0  0  0  0  0  0  0  0  0  0  0  0
   -2.1900    4.0680    8.6080 N   0  0  0  0  0  0  0  0  0  0  0  0
   -2.3200    4.9270    9.7960 C   0  0  0  0  0  0  0  0  0  0  0  0
   -2.7790    6.3290    9.3380 C   0  0  0  0  0  0  0  0  0  0  0  0
   -4.2640    6.6180    9.5690 C   0  0  0  0  0  0  0  0  0  0  0  0
   -5.1260    5.3830    9.3580 C   0  0  0  0  0  0  0  0  0  0  0  0
   -4.7400    4.2450   10.3020 C   0  0  0  0  0  0  0  0  0  0  0  0
   -3.2990    4.3300   10.8150 C   0  0  0  0  0  0  0  0  0  0  0  0
    0.1190    3.8360    8.1090 N   0  0  0  0  0  0  0  0  0  0  0  0
    1.2030    3.0540    8.0110 C   0  0  0  0  0  0  0  0  0  0  0  0
    1.2520    1.7490    8.2670 N   0  0  0  0  0  0  0  0  0  0  0  0
    0.0720    1.2040    8.6360 C   0  0  0  0  0  0  0  0  0  0  0  0
   -1.1200   -1.8160    9.4780 H   0  0  0  0  0  0  0  0  0  0  0  0
   -3.2342   -0.6464    9.6660 H   0  0  0  0  0  0  0  0  0  0  0  0
   -3.3054    1.7419    9.2120 H   0  0  0  0  0  0  0  0  0  0  0  0
   -3.0180    3.4990    8.4540 H   0  0  0  0  0  0  0  0  0  0  0  0
   -1.3458    5.0020   10.3014 H   0  0  0  0  0  0  0  0  0  0  0  0
   -2.1932    7.0793    9.8893 H   0  0  0  0  0  0  0  0  0  0  0  0
   -2.6178    6.3711    8.2507 H   0  0  0  0  0  0  0  0  0  0  0  0
   -4.3999    6.9735   10.6011 H   0  0  0  0  0  0  0  0  0  0  0  0
   -4.5786    7.3796    8.8402 H   0  0  0  0  0  0  0  0  0  0  0  0
   -6.1781    5.6501    9.5359 H   0  0  0  0  0  0  0  0  0  0  0  0
   -4.9719    5.0344    8.3261 H   0  0  0  0  0  0  0  0  0  0  0  0
   -5.4183    4.2671   11.1677 H   0  0  0  0  0  0  0  0  0  0  0  0
   -4.8213    3.3104    9.7277 H   0  0  0  0  0  0  0  0  0  0  0  0
   -3.2875    4.9582   11.7179 H   0  0  0  0  0  0  0  0  0  0  0  0
   -2.9669    3.3011   11.0177 H   0  0  0  0  0  0  0  0  0  0  0  0
    2.1384    3.5352    7.6893 H   0  0  0  0  0  0  0  0  0  0  0  0
  1  2  2  0
  2  3  1  0
  3  4  1  0
  4  5  2  0
  5  6  1  0
  6  7  2  0
  7  8  1  0
  8  9  1  0
  9 10  1  0
 10 11  1  0
 11 12  1  0
 12 13  1  0
 13 14  1  0
  7 15  1  0
 15 16  2  0
 16 17  1  0
 17 18  2  0
 18  2  1  0
 18  6  1  0
 14  9  1  0
  3 19  1  0
  4 20  1  0
  5 21  1  0
  8 22  1  0
  9 23  1  0
 10 24  1  0
 10 25  1  0
 11 26  1  0
 11 27  1  0
 12 28  1  0
 12 29  1  0
 13 30  1  0
 13 31  1  0
 14 32  1  0
 14 33  1  0
 16 34  1  0
M  END
>  <meeko>  (7) 
{"is_sidechain": [false], "free_energy": -7.061, "intermolecular_energy": -7.777, "internal_energy": -0.541}

$$$$
4k77_ligand
     RDKit          3D

 34 36  0  0  0  0  0  0  0  0999 V2000
   -5.5660    6.5750    9.5110 O   0  0  0  0  0  0  0  0  0  0  0  0
   -4.3820    6.2600    9.4420 C   0  0  0  0  0  0  0  0  0  0  0  0
   -3.4730    7.0770    8.7950 N   0  0  0  0  0  0  0  0  0  0  0  0
   -2.1410    6.7980    8.6610 C   0  0  0  0  0  0  0  0  0  0  0  0
   -1.6100    5.6880    9.1830 C   0  0  0  0  0  0  0  0  0  0  0  0
   -2.4700    4.7510    9.9180 C   0  0  0  0  0  0  0  0  0  0  0  0
   -2.0310    3.5740   10.5210 C   0  0  0  0  0  0  0  0  0  0  0  0
   -0.6690    3.2290   10.4600 N   0  0  0  0  0  0  0  0  0  0  0  0
   -0.2980    2.0450    9.6680 C   0  0  0  0  0  0  0  0  0  0  0  0
   -0.8910    2.2010    8.2500 C   0  0  0  0  0  0  0  0  0  0  0  0
    0.1190    2.6290    7.1830 C   0  0  0  0  0  0  0  0  0  0  0  0
    1.1530    3.6000    7.7300 C   0  0  0  0  0  0  0  0  0  0  0  0
    1.9520    2.9970    8.8850 C   0  0  0  0  0  0  0  0  0  0  0  0
    1.2240    1.8620    9.6130 C   0  0  0  0  0  0  0  0  0  0  0  0
   -2.8920    2.7340   11.1280 N   0  0  0  0  0  0  0  0  0  0  0  0
   -4.1860    3.0810   11.1700 C   0  0  0  0  0  0  0  0  0  0  0  0
   -4.7150    4.1910   10.6620 N   0  0  0  0  0  0  0  0  0  0  0  0
   -3.8320    5.0010   10.0390 C   0  0  0  0  0  0  0  0  0  0  0  0
   -3.8650    7.9220    8.3900 H   0  0  0  0  0  0  0  0  0  0  0  0
   -1.4947    7.4999    8.1136 H   0  0  0  0  0  0  0  0  0  0  0  0
   -0.5370    5.4777    9.0631 H   0  0  0  0  0  0  0  0  0  0  0  0
   -0.2810    3.1990   11.3990 H   0  0  0  0  0  0  0  0  0  0  0  0
   -0.7072    1.1424   10.1453 H   0  0  0  0  0  0  0  0  0  0  0  0
   -1.3199    1.2339    7.9487 H   0  0  0  0  0  0  0  0  0  0  0  0
   -1.6405    3.0038    8.3111 H   0  0  0  0  0  0  0  0  0  0  0  0
    0.6369    1.7348    6.8060 H   0  0  0  0  0  0  0  0  0  0  0  0
   -0.4329    3.1393    6.3799 H   0  0  0  0  0  0  0  0  0  0  0  0
    1.8477    3.8713    6.9215 H   0  0  0  0  0  0  0  0  0  0  0  0
    0.6202    4.4837    8.1111 H   0  0  0  0  0  0  0  0  0  0  0  0
    2.8972    2.6022    8.4842 H   0  0  0  0  0  0  0  0  0  0  0  0
    2.1098    3.8002    9.6198 H   0  0  0  0  0  0  0  0  0  0  0  0
    1.4423    0.9182    9.0919 H   0  0  0  0  0  0  0  0  0  0  0  0
    1.5866    1.8598   10.6515 H   0  0  0  0  0  0  0  0  0  0  0  0
   -4.8739    2.3838   11.6706 H   0  0  0  0  0  0  0  0  0  0  0  0
  1  2  2  0
  2  3  1  0
  3  4  1  0
  4  5  2  0
  5  6  1  0
  6  7  2  0
  7  8  1  0
  8  9  1  0
  9 10  1  0
 10 11  1  0
 11 12  1  0
 12 13  1  0
 13 14  1  0
  7 15  1  0
 15 16  2  0
 16 17  1  0
 17 18  2  0
 18  2  1  0
 18  6  1  0
 14  9  1  0
  3 19  1  0
  4 20  1  0
  5 21  1  0
  8 22  1  0
  9 23  1  0
 10 24  1  0
 10 25  1  0
 11 26  1  0
 11 27  1  0
 12 28  1  0
 12 29  1  0
 13 30  1  0
 13 31  1  0
 14 32  1  0
 14 33  1  0
 16 34  1  0
M  END
>  <meeko>  (8) 
{"is_sidechain": [false], "free_energy": -7.006, "intermolecular_energy": -7.632, "internal_energy": -0.625}

$$$$
4k77_ligand
     RDKit          3D

 34 36  0  0  0  0  0  0  0  0999 V2000
    1.7600   -0.5040    8.4150 O   0  0  0  0  0  0  0  0  0  0  0  0
    1.0370    0.4850    8.3580 C   0  0  0  0  0  0  0  0  0  0  0  0
    1.4370    1.6100    7.6610 N   0  0  0  0  0  0  0  0  0  0  0  0
    0.7000    2.7580    7.5570 C   0  0  0  0  0  0  0  0  0  0  0  0
   -0.5050    2.8620    8.1260 C   0  0  0  0  0  0  0  0  0  0  0  0
   -1.0530    1.7220    8.8730 C   0  0  0  0  0  0  0  0  0  0  0  0
   -2.3000    1.7040    9.4930 C   0  0  0  0  0  0  0  0  0  0  0  0
   -3.1370    2.8310    9.4050 N   0  0  0  0  0  0  0  0  0  0  0  0
   -3.1320    3.7760   10.5340 C   0  0  0  0  0  0  0  0  0  0  0  0
   -2.7490    5.1740    9.9990 C   0  0  0  0  0  0  0  0  0  0  0  0
   -3.9280    6.1350    9.8330 C   0  0  0  0  0  0  0  0  0  0  0  0
   -5.1890    5.4200    9.3750 C   0  0  0  0  0  0  0  0  0  0  0  0
   -5.6280    4.3410   10.3630 C   0  0  0  0  0  0  0  0  0  0  0  0
   -4.4920    3.8080   11.2420 C   0  0  0  0  0  0  0  0  0  0  0  0
   -2.7100    0.6400   10.2120 N   0  0  0  0  0  0  0  0  0  0  0  0
   -1.8950   -0.4220   10.2850 C   0  0  0  0  0  0  0  0  0  0  0  0
   -0.7000   -0.5320    9.7100 N   0  0  0  0  0  0  0  0  0  0  0  0
   -0.3070    0.5590    9.0170 C   0  0  0  0  0  0  0  0  0  0  0  0
    2.3530    1.5460    7.2280 H   0  0  0  0  0  0  0  0  0  0  0  0
    1.1067    3.6114    6.9946 H   0  0  0  0  0  0  0  0  0  0  0  0
   -1.0819    3.7942    8.0356 H   0  0  0  0  0  0  0  0  0  0  0  0
   -4.0770    2.5410    9.1510 H   0  0  0  0  0  0  0  0  0  0  0  0
   -2.3944    3.4501   11.2821 H   0  0  0  0  0  0  0  0  0  0  0  0
   -2.0333    5.6264   10.7013 H   0  0  0  0  0  0  0  0  0  0  0  0
   -2.3274    5.0198    8.9948 H   0  0  0  0  0  0  0  0  0  0  0  0
   -4.1274    6.6218   10.7990 H   0  0  0  0  0  0  0  0  0  0  0  0
   -3.6580    6.8722    9.0625 H   0  0  0  0  0  0  0  0  0  0  0  0
   -5.9982    6.1581    9.2730 H   0  0  0  0  0  0  0  0  0  0  0  0
   -4.9715    4.9313    8.4138 H   0  0  0  0  0  0  0  0  0  0  0  0
   -6.4033    4.7652   11.0179 H   0  0  0  0  0  0  0  0  0  0  0  0
   -5.9973    3.4929    9.7678 H   0  0  0  0  0  0  0  0  0  0  0  0
   -4.4071    4.4524   12.1294 H   0  0  0  0  0  0  0  0  0  0  0  0
   -4.7451    2.7696   11.5021 H   0  0  0  0  0  0  0  0  0  0  0  0
   -2.2465   -1.2816   10.8745 H   0  0  0  0  0  0  0  0  0  0  0  0
  1  2  2  0
  2  3  1  0
  3  4  1  0
  4  5  2  0
  5  6  1  0
  6  7  2  0
  7  8  1  0
  8  9  1  0
  9 10  1  0
 10 11  1  0
 11 12  1  0
 12 13  1  0
 13 14  1  0
  7 15  1  0
 15 16  2  0
 16 17  1  0
 17 18  2  0
 18  2  1  0
 18  6  1  0
 14  9  1  0
  3 19  1  0
  4 20  1  0
  5 21  1  0
  8 22  1  0
  9 23  1  0
 10 24  1  0
 10 25  1  0
 11 26  1  0
 11 27  1  0
 12 28  1  0
 12 29  1  0
 13 30  1  0
 13 31  1  0
 14 32  1  0
 14 33  1  0
 16 34  1  0
M  END
>  <meeko>  (9) 
{"is_sidechain": [false], "free_energy": -6.864, "intermolecular_energy": -7.652, "internal_energy": -0.446}

$$$$
