4m0y_ligand
     RDKit          3D

 35 37  0  0  0  0  0  0  0  0999 V2000
    3.3160   -6.0280    4.9160 N   0  0  0  0  0  0  0  0  0  0  0  0
    4.2200   -6.7540    4.1980 C   0  0  0  0  0  0  0  0  0  0  0  0
    5.2740   -7.1000    4.7140 O   0  0  0  0  0  0  0  0  0  0  0  0
    3.7920   -6.9940    2.9220 N   0  0  0  0  0  0  0  0  0  0  0  0
    4.4750   -7.7240    1.9640 C   0  0  0  0  0  0  0  0  0  0  0  0
    5.2720   -7.2690    0.9480 C   0  0  0  0  0  0  0  0  0  0  0  0
    5.7350   -8.3660    0.2470 N   0  0  0  0  0  0  0  0  0  0  0  0
    6.5320   -8.3530   -0.9460 C   0  0  0  0  0  0  0  0  0  0  0  0
    5.8540   -8.5180   -2.1730 C   0  0  0  0  0  0  0  0  0  0  0  0
    6.5520   -8.5870   -3.3720 C   0  0  0  0  0  0  0  0  0  0  0  0
    7.9380   -8.4910   -3.3690 C   0  0  0  0  0  0  0  0  0  0  0  0
    8.6480   -8.3050   -2.1760 C   0  0  0  0  0  0  0  0  0  0  0  0
   10.0470   -8.1950   -2.2420 C   0  0  0  0  0  0  0  0  0  0  0  0
   10.8110   -7.9710   -1.1000 C   0  0  0  0  0  0  0  0  0  0  0  0
   10.1780   -7.8450    0.1240 C   0  0  0  0  0  0  0  0  0  0  0  0
    8.7860   -7.9580    0.2030 C   0  0  0  0  0  0  0  0  0  0  0  0
    7.9640   -8.2170   -0.9300 C   0  0  0  0  0  0  0  0  0  0  0  0
    5.2730   -9.5180    0.7990 N   0  0  0  0  0  0  0  0  0  0  0  0
    4.5040   -9.1340    1.8340 C   0  0  0  0  0  0  0  0  0  0  0  0
    3.8070  -10.1060    2.6830 C   0  0  0  0  0  0  0  0  0  0  0  0
    4.4480  -11.3040    2.8210 N   0  0  0  0  0  0  0  0  0  0  0  0
    2.7280   -9.8780    3.2250 O   0  0  0  0  0  0  0  0  0  0  0  0
    3.5760   -5.9400    5.8910 H   0  0  0  0  0  0  0  0  0  0  0  0
    2.3390   -6.2320    4.7640 H   0  0  0  0  0  0  0  0  0  0  0  0
    2.9530   -6.5180    2.6060 H   0  0  0  0  0  0  0  0  0  0  0  0
    5.5029   -6.2161    0.7286 H   0  0  0  0  0  0  0  0  0  0  0  0
    4.7566   -8.5931   -2.1798 H   0  0  0  0  0  0  0  0  0  0  0  0
    6.0095   -8.7171   -4.3201 H   0  0  0  0  0  0  0  0  0  0  0  0
    8.4870   -8.5623   -4.3195 H   0  0  0  0  0  0  0  0  0  0  0  0
   10.5492   -8.2878   -3.2163 H   0  0  0  0  0  0  0  0  0  0  0  0
   11.9061   -7.8950   -1.1699 H   0  0  0  0  0  0  0  0  0  0  0  0
   10.7682   -7.6564    1.0329 H   0  0  0  0  0  0  0  0  0  0  0  0
    8.3047   -7.8414    1.1852 H   0  0  0  0  0  0  0  0  0  0  0  0
    3.9960  -12.0590    3.3130 H   0  0  0  0  0  0  0  0  0  0  0  0
    5.2880  -11.4680    2.2770 H   0  0  0  0  0  0  0  0  0  0  0  0
  1  2  1  0
  2  3  2  0
  2  4  1  0
  4  5  1  0
  5  6  2  0
  6  7  1  0
  7  8  1  0
  8  9  2  0
  9 10  1  0
 10 11  2  0
 11 12  1  0
 12 13  2  0
 13 14  1  0
 14 15  2  0
 15 16  1  0
 16 17  2  0
  7 18  1  0
 18 19  2  0
 19 20  1  0
 20 21  1  0
 20 22  2  0
 19  5  1  0
 17  8  1  0
 17 12  1  0
  1 23  1  0
  1 24  1  0
  4 25  1  0
  6 26  1  0
  9 27  1  0
 10 28  1  0
 11 29  1  0
 13 30  1  0
 14 31  1  0
 15 32  1  0
 16 33  1  0
 21 34  1  0
 21 35  1  0
M  END
>  <meeko>  (1) 
{"is_sidechain": [false], "free_energy": -8.687, "intermolecular_energy": -10.21, "internal_energy": -0.841}

$$$$
4m0y_ligand
     RDKit          3D

 35 37  0  0  0  0  0  0  0  0999 V2000
    3.4340   -5.9000    5.0810 N   0  0  0  0  0  0  0  0  0  0  0  0
    4.2250   -6.7570    4.3730 C   0  0  0  0  0  0  0  0  0  0  0  0
    3.7810   -7.8370    4.0080 O   0  0  0  0  0  0  0  0  0  0  0  0
    5.4800   -6.2540    4.1720 N   0  0  0  0  0  0  0  0  0  0  0  0
    6.4960   -6.8750    3.4670 C   0  0  0  0  0  0  0  0  0  0  0  0
    6.7980   -6.7770    2.1340 C   0  0  0  0  0  0  0  0  0  0  0  0
    7.8950   -7.5800    1.8870 N   0  0  0  0  0  0  0  0  0  0  0  0
    8.4980   -7.8460    0.6130 C   0  0  0  0  0  0  0  0  0  0  0  0
    9.8030   -7.3530    0.4040 C   0  0  0  0  0  0  0  0  0  0  0  0
   10.4370   -7.5050   -0.8230 C   0  0  0  0  0  0  0  0  0  0  0  0
    9.7820   -8.1520   -1.8610 C   0  0  0  0  0  0  0  0  0  0  0  0
    8.4940   -8.6760   -1.6900 C   0  0  0  0  0  0  0  0  0  0  0  0
    7.8930   -9.3390   -2.7740 C   0  0  0  0  0  0  0  0  0  0  0  0
    6.6320   -9.9160   -2.6610 C   0  0  0  0  0  0  0  0  0  0  0  0
    5.9600   -9.8450   -1.4530 C   0  0  0  0  0  0  0  0  0  0  0  0
    6.5460   -9.1830   -0.3690 C   0  0  0  0  0  0  0  0  0  0  0  0
    7.8200   -8.5510   -0.4430 C   0  0  0  0  0  0  0  0  0  0  0  0
    8.3200   -8.1770    3.0300 N   0  0  0  0  0  0  0  0  0  0  0  0
    7.4720   -7.7590    3.9880 C   0  0  0  0  0  0  0  0  0  0  0  0
    7.5970   -8.2030    5.3800 C   0  0  0  0  0  0  0  0  0  0  0  0
    8.5590   -9.1490    5.5920 N   0  0  0  0  0  0  0  0  0  0  0  0
    6.8930   -7.7750    6.2910 O   0  0  0  0  0  0  0  0  0  0  0  0
    2.4740   -6.2170    5.1400 H   0  0  0  0  0  0  0  0  0  0  0  0
    3.5340   -4.9150    4.8860 H   0  0  0  0  0  0  0  0  0  0  0  0
    5.7320   -5.4010    4.6610 H   0  0  0  0  0  0  0  0  0  0  0  0
    6.2620   -6.1670    1.3919 H   0  0  0  0  0  0  0  0  0  0  0  0
   10.3265   -6.8406    1.2246 H   0  0  0  0  0  0  0  0  0  0  0  0
   11.4544   -7.1138   -0.9709 H   0  0  0  0  0  0  0  0  0  0  0  0
   10.2826   -8.2553   -2.8350 H   0  0  0  0  0  0  0  0  0  0  0  0
    8.4308   -9.4030   -3.7315 H   0  0  0  0  0  0  0  0  0  0  0  0
    6.1738  -10.4234   -3.5228 H   0  0  0  0  0  0  0  0  0  0  0  0
    4.9679  -10.3079   -1.3457 H   0  0  0  0  0  0  0  0  0  0  0  0
    5.9977   -9.1490    0.5840 H   0  0  0  0  0  0  0  0  0  0  0  0
    8.6510   -9.5740    6.5010 H   0  0  0  0  0  0  0  0  0  0  0  0
    9.0460   -9.5320    4.7880 H   0  0  0  0  0  0  0  0  0  0  0  0
  1  2  1  0
  2  3  2  0
  2  4  1  0
  4  5  1  0
  5  6  2  0
  6  7  1  0
  7  8  1  0
  8  9  2  0
  9 10  1  0
 10 11  2  0
 11 12  1  0
 12 13  2  0
 13 14  1  0
 14 15  2  0
 15 16  1  0
 16 17  2  0
  7 18  1  0
 18 19  2  0
 19 20  1  0
 20 21  1  0
 20 22  2  0
 19  5  1  0
 17  8  1  0
 17 12  1  0
  1 23  1  0
  1 24  1  0
  4 25  1  0
  6 26  1  0
  9 27  1  0
 10 28  1  0
 11 29  1  0
 13 30  1  0
 14 31  1  0
 15 32  1  0
 16 33  1  0
 21 34  1  0
 21 35  1  0
M  END
>  <meeko>  (2) 
{"is_sidechain": [false], "free_energy": -8.591, "intermolecular_energy": -10.18, "internal_energy": -0.758}

$$$$
4m0y_ligand
     RDKit          3D

 35 37  0  0  0  0  0  0  0  0999 V2000
    9.1280   -9.3820    7.3540 N   0  0  0  0  0  0  0  0  0  0  0  0
    9.2480   -8.6700    6.1980 C   0  0  0  0  0  0  0  0  0  0  0  0
   10.1060   -7.8030    6.1000 O   0  0  0  0  0  0  0  0  0  0  0  0
    8.3270   -9.0470    5.2610 N   0  0  0  0  0  0  0  0  0  0  0  0
    8.2160   -8.5290    3.9820 C   0  0  0  0  0  0  0  0  0  0  0  0
    8.7840   -8.9850    2.8210 C   0  0  0  0  0  0  0  0  0  0  0  0
    8.3900   -8.1450    1.7970 N   0  0  0  0  0  0  0  0  0  0  0  0
    8.8170   -8.1950    0.4290 C   0  0  0  0  0  0  0  0  0  0  0  0
   10.1220   -7.7390    0.1450 C   0  0  0  0  0  0  0  0  0  0  0  0
   10.5930   -7.6880   -1.1610 C   0  0  0  0  0  0  0  0  0  0  0  0
    9.7730   -8.0930   -2.2060 C   0  0  0  0  0  0  0  0  0  0  0  0
    8.4780   -8.5720   -1.9660 C   0  0  0  0  0  0  0  0  0  0  0  0
    7.7050   -8.9850   -3.0650 C   0  0  0  0  0  0  0  0  0  0  0  0
    6.4270   -9.5080   -2.8950 C   0  0  0  0  0  0  0  0  0  0  0  0
    5.9100   -9.6320   -1.6170 C   0  0  0  0  0  0  0  0  0  0  0  0
    6.6680   -9.2190   -0.5160 C   0  0  0  0  0  0  0  0  0  0  0  0
    7.9670   -8.6510   -0.6400 C   0  0  0  0  0  0  0  0  0  0  0  0
    7.5670   -7.1710    2.2650 N   0  0  0  0  0  0  0  0  0  0  0  0
    7.4640   -7.3960    3.5880 C   0  0  0  0  0  0  0  0  0  0  0  0
    6.6590   -6.5340    4.4600 C   0  0  0  0  0  0  0  0  0  0  0  0
    5.3690   -6.3530    4.0470 N   0  0  0  0  0  0  0  0  0  0  0  0
    7.0970   -6.0040    5.4770 O   0  0  0  0  0  0  0  0  0  0  0  0
    9.8740   -9.1850    8.0110 H   0  0  0  0  0  0  0  0  0  0  0  0
    8.8980  -10.3620    7.2690 H   0  0  0  0  0  0  0  0  0  0  0  0
    7.5940   -9.6870    5.5480 H   0  0  0  0  0  0  0  0  0  0  0  0
    9.4378   -9.8641    2.7219 H   0  0  0  0  0  0  0  0  0  0  0  0
   10.7758   -7.4193    0.9698 H   0  0  0  0  0  0  0  0  0  0  0  0
   11.6119   -7.3281   -1.3666 H   0  0  0  0  0  0  0  0  0  0  0  0
   10.1461   -8.0369   -3.2393 H   0  0  0  0  0  0  0  0  0  0  0  0
    8.1189   -8.8928   -4.0800 H   0  0  0  0  0  0  0  0  0  0  0  0
    5.8336   -9.8197   -3.7672 H   0  0  0  0  0  0  0  0  0  0  0  0
    4.9054  -10.0543   -1.4674 H   0  0  0  0  0  0  0  0  0  0  0  0
    6.2408   -9.3387    0.4906 H   0  0  0  0  0  0  0  0  0  0  0  0
    4.7740   -5.7050    4.5380 H   0  0  0  0  0  0  0  0  0  0  0  0
    5.0890   -6.7400    3.1520 H   0  0  0  0  0  0  0  0  0  0  0  0
  1  2  1  0
  2  3  2  0
  2  4  1  0
  4  5  1  0
  5  6  2  0
  6  7  1  0
  7  8  1  0
  8  9  2  0
  9 10  1  0
 10 11  2  0
 11 12  1  0
 12 13  2  0
 13 14  1  0
 14 15  2  0
 15 16  1  0
 16 17  2  0
  7 18  1  0
 18 19  2  0
 19 20  1  0
 20 21  1  0
 20 22  2  0
 19  5  1  0
 17  8  1  0
 17 12  1  0
  1 23  1  0
  1 24  1  0
  4 25  1  0
  6 26  1  0
  9 27  1  0
 10 28  1  0
 11 29  1  0
 13 30  1  0
 14 31  1  0
 15 32  1  0
 16 33  1  0
 21 34  1  0
 21 35  1  0
M  END
>  <meeko>  (3) 
{"is_sidechain": [false], "free_energy": -8.434, "intermolecular_energy": -9.938, "internal_energy": -0.816}

$$$$
4m0y_ligand
     RDKit          3D

 35 37  0  0  0  0  0  0  0  0999 V2000
    2.0180  -11.8400    4.3580 N   0  0  0  0  0  0  0  0  0  0  0  0
    2.3500  -10.9820    3.3510 C   0  0  0  0  0  0  0  0  0  0  0  0
    1.4730  -10.4940    2.6500 O   0  0  0  0  0  0  0  0  0  0  0  0
    3.7000  -10.7880    3.2630 N   0  0  0  0  0  0  0  0  0  0  0  0
    4.3400   -9.9540    2.3620 C   0  0  0  0  0  0  0  0  0  0  0  0
    4.9730  -10.2820    1.1920 C   0  0  0  0  0  0  0  0  0  0  0  0
    5.4630   -9.1170    0.6340 N   0  0  0  0  0  0  0  0  0  0  0  0
    6.2670   -8.9990   -0.5480 C   0  0  0  0  0  0  0  0  0  0  0  0
    5.6470   -9.3000   -1.7800 C   0  0  0  0  0  0  0  0  0  0  0  0
    6.3680   -9.2800   -2.9670 C   0  0  0  0  0  0  0  0  0  0  0  0
    7.7180   -8.9570   -2.9480 C   0  0  0  0  0  0  0  0  0  0  0  0
    8.3680   -8.6320   -1.7500 C   0  0  0  0  0  0  0  0  0  0  0  0
    9.7310   -8.2950   -1.8000 C   0  0  0  0  0  0  0  0  0  0  0  0
   10.4280   -7.9240   -0.6540 C   0  0  0  0  0  0  0  0  0  0  0  0
    9.7620   -7.8770    0.5580 C   0  0  0  0  0  0  0  0  0  0  0  0
    8.4060   -8.2150    0.6210 C   0  0  0  0  0  0  0  0  0  0  0  0
    7.6580   -8.6300   -0.5170 C   0  0  0  0  0  0  0  0  0  0  0  0
    5.1440   -8.0440    1.4040 N   0  0  0  0  0  0  0  0  0  0  0  0
    4.4700   -8.5470    2.4540 C   0  0  0  0  0  0  0  0  0  0  0  0
    3.9620   -7.6900    3.5300 C   0  0  0  0  0  0  0  0  0  0  0  0
    3.8700   -6.3650    3.2080 N   0  0  0  0  0  0  0  0  0  0  0  0
    3.6490   -8.1130    4.6400 O   0  0  0  0  0  0  0  0  0  0  0  0
    1.0170  -11.9040    4.5000 H   0  0  0  0  0  0  0  0  0  0  0  0
    2.5540  -11.7770    5.2110 H   0  0  0  0  0  0  0  0  0  0  0  0
    4.3010  -11.3760    3.8310 H   0  0  0  0  0  0  0  0  0  0  0  0
    5.0733  -11.2935    0.7715 H   0  0  0  0  0  0  0  0  0  0  0  0
    4.5770   -9.5542   -1.8002 H   0  0  0  0  0  0  0  0  0  0  0  0
    5.8711   -9.5192   -3.9187 H   0  0  0  0  0  0  0  0  0  0  0  0
    8.2871   -8.9562   -3.8894 H   0  0  0  0  0  0  0  0  0  0  0  0
   10.2582   -8.3250   -2.7650 H   0  0  0  0  0  0  0  0  0  0  0  0
   11.4969   -7.6708   -0.7111 H   0  0  0  0  0  0  0  0  0  0  0  0
   10.2976   -7.5745    1.4699 H   0  0  0  0  0  0  0  0  0  0  0  0
    7.8948   -8.1576    1.5933 H   0  0  0  0  0  0  0  0  0  0  0  0
    3.6160   -5.6950    3.9160 H   0  0  0  0  0  0  0  0  0  0  0  0
    4.2290   -6.0610    2.3100 H   0  0  0  0  0  0  0  0  0  0  0  0
  1  2  1  0
  2  3  2  0
  2  4  1  0
  4  5  1  0
  5  6  2  0
  6  7  1  0
  7  8  1  0
  8  9  2  0
  9 10  1  0
 10 11  2  0
 11 12  1  0
 12 13  2  0
 13 14  1  0
 14 15  2  0
 15 16  1  0
 16 17  2  0
  7 18  1  0
 18 19  2  0
 19 20  1  0
 20 21  1  0
 20 22  2  0
 19  5  1  0
 17  8  1  0
 17 12  1  0
  1 23  1  0
  1 24  1  0
  4 25  1  0
  6 26  1  0
  9 27  1  0
 10 28  1  0
 11 29  1  0
 13 30  1  0
 14 31  1  0
 15 32  1  0
 16 33  1  0
 21 34  1  0
 21 35  1  0
M  END
>  <meeko>  (4) 
{"is_sidechain": [false], "free_energy": -8.419, "intermolecular_energy": -10.002, "internal_energy": -0.734}

$$$$
4m0y_ligand
     RDKit          3D

 35 37  0  0  0  0  0  0  0  0999 V2000
    5.8680   -5.1760    5.9570 N   0  0  0  0  0  0  0  0  0  0  0  0
    6.5500   -5.9760    5.0880 C   0  0  0  0  0  0  0  0  0  0  0  0
    7.7270   -6.2380    5.2940 O   0  0  0  0  0  0  0  0  0  0  0  0
    5.7690   -6.3860    4.0430 N   0  0  0  0  0  0  0  0  0  0  0  0
    6.1680   -7.2250    3.0170 C   0  0  0  0  0  0  0  0  0  0  0  0
    6.8130   -6.9050    1.8510 C   0  0  0  0  0  0  0  0  0  0  0  0
    7.0010   -8.0720    1.1350 N   0  0  0  0  0  0  0  0  0  0  0  0
    7.5570   -8.1960   -0.1810 C   0  0  0  0  0  0  0  0  0  0  0  0
    8.9610   -8.3040   -0.2770 C   0  0  0  0  0  0  0  0  0  0  0  0
    9.5900   -8.3590   -1.5150 C   0  0  0  0  0  0  0  0  0  0  0  0
    8.8310   -8.3090   -2.6770 C   0  0  0  0  0  0  0  0  0  0  0  0
    7.4340   -8.2230   -2.6260 C   0  0  0  0  0  0  0  0  0  0  0  0
    6.7220   -8.1960   -3.8370 C   0  0  0  0  0  0  0  0  0  0  0  0
    5.3310   -8.1500   -3.8580 C   0  0  0  0  0  0  0  0  0  0  0  0
    4.6350   -8.1410   -2.6630 C   0  0  0  0  0  0  0  0  0  0  0  0
    5.3330   -8.1620   -1.4500 C   0  0  0  0  0  0  0  0  0  0  0  0
    6.7550   -8.1780   -1.3750 C   0  0  0  0  0  0  0  0  0  0  0  0
    6.5120   -9.1390    1.8200 N   0  0  0  0  0  0  0  0  0  0  0  0
    6.0010   -8.6290    2.9560 C   0  0  0  0  0  0  0  0  0  0  0  0
    5.3600   -9.4790    3.9650 C   0  0  0  0  0  0  0  0  0  0  0  0
    5.2720  -10.7990    3.6260 N   0  0  0  0  0  0  0  0  0  0  0  0
    4.9240   -9.0500    5.0310 O   0  0  0  0  0  0  0  0  0  0  0  0
    6.4050   -4.9580    6.7880 H   0  0  0  0  0  0  0  0  0  0  0  0
    4.9020   -5.4110    6.1370 H   0  0  0  0  0  0  0  0  0  0  0  0
    4.8510   -5.9660    3.9450 H   0  0  0  0  0  0  0  0  0  0  0  0
    7.1258   -5.8973    1.5399 H   0  0  0  0  0  0  0  0  0  0  0  0
    9.5658   -8.3452    0.6409 H   0  0  0  0  0  0  0  0  0  0  0  0
   10.6853   -8.4419   -1.5744 H   0  0  0  0  0  0  0  0  0  0  0  0
    9.3356   -8.3374   -3.6540 H   0  0  0  0  0  0  0  0  0  0  0  0
    7.2751   -8.2115   -4.7877 H   0  0  0  0  0  0  0  0  0  0  0  0
    4.7906   -8.1211   -4.8157 H   0  0  0  0  0  0  0  0  0  0  0  0
    3.5353   -8.1174   -2.6658 H   0  0  0  0  0  0  0  0  0  0  0  0
    4.7574   -8.1663   -0.5126 H   0  0  0  0  0  0  0  0  0  0  0  0
    4.7670  -11.4360    4.2210 H   0  0  0  0  0  0  0  0  0  0  0  0
    5.5650  -11.0790    2.6960 H   0  0  0  0  0  0  0  0  0  0  0  0
  1  2  1  0
  2  3  2  0
  2  4  1  0
  4  5  1  0
  5  6  2  0
  6  7  1  0
  7  8  1  0
  8  9  2  0
  9 10  1  0
 10 11  2  0
 11 12  1  0
 12 13  2  0
 13 14  1  0
 14 15  2  0
 15 16  1  0
 16 17  2  0
  7 18  1  0
 18 19  2  0
 19 20  1  0
 20 21  1  0
 20 22  2  0
 19  5  1  0
 17  8  1  0
 17 12  1  0
  1 23  1  0
  1 24  1  0
  4 25  1  0
  6 26  1  0
  9 27  1  0
 10 28  1  0
 11 29  1  0
 13 30  1  0
 14 31  1  0
 15 32  1  0
 16 33  1  0
 21 34  1  0
 21 35  1  0
M  END
>  <meeko>  (5) 
{"is_sidechain": [false], "free_energy": -8.276, "intermolecular_energy": -9.729, "internal_energy": -0.839}

$$$$
4m0y_ligand
     RDKit          3D

 35 37  0  0  0  0  0  0  0  0999 V2000
    9.2540   -9.3250    7.1380 N   0  0  0  0  0  0  0  0  0  0  0  0
    9.1160   -8.5910    5.9970 C   0  0  0  0  0  0  0  0  0  0  0  0
    9.6640   -7.5020    5.9010 O   0  0  0  0  0  0  0  0  0  0  0  0
    8.3260   -9.2180    5.0740 N   0  0  0  0  0  0  0  0  0  0  0  0
    8.0230   -8.7380    3.8110 C   0  0  0  0  0  0  0  0  0  0  0  0
    8.5430   -9.1200    2.6020 C   0  0  0  0  0  0  0  0  0  0  0  0
    7.9380   -8.3590    1.6200 N   0  0  0  0  0  0  0  0  0  0  0  0
    8.2410   -8.3640    0.2180 C   0  0  0  0  0  0  0  0  0  0  0  0
    7.2790   -8.9300   -0.6450 C   0  0  0  0  0  0  0  0  0  0  0  0
    7.5180   -9.0390   -2.0100 C   0  0  0  0  0  0  0  0  0  0  0  0
    8.7190   -8.5840   -2.5370 C   0  0  0  0  0  0  0  0  0  0  0  0
    9.6920   -7.9950   -1.7190 C   0  0  0  0  0  0  0  0  0  0  0  0
   10.8780   -7.5360   -2.3170 C   0  0  0  0  0  0  0  0  0  0  0  0
   11.8690   -6.9070   -1.5690 C   0  0  0  0  0  0  0  0  0  0  0  0
   11.6790   -6.7220   -0.2110 C   0  0  0  0  0  0  0  0  0  0  0  0
   10.5050   -7.1800    0.3960 C   0  0  0  0  0  0  0  0  0  0  0  0
    9.4750   -7.8560   -0.3190 C   0  0  0  0  0  0  0  0  0  0  0  0
    7.0260   -7.5110    2.1630 N   0  0  0  0  0  0  0  0  0  0  0  0
    7.0800   -7.7320    3.4890 C   0  0  0  0  0  0  0  0  0  0  0  0
    6.2390   -6.9870    4.4320 C   0  0  0  0  0  0  0  0  0  0  0  0
    6.4460   -5.6370    4.4350 N   0  0  0  0  0  0  0  0  0  0  0  0
    5.4170   -7.5210    5.1720 O   0  0  0  0  0  0  0  0  0  0  0  0
    9.9230   -8.9200    7.7820 H   0  0  0  0  0  0  0  0  0  0  0  0
    9.3320  -10.3260    7.0340 H   0  0  0  0  0  0  0  0  0  0  0  0
    7.8320  -10.0560    5.3630 H   0  0  0  0  0  0  0  0  0  0  0  0
    9.3068   -9.8952    2.4417 H   0  0  0  0  0  0  0  0  0  0  0  0
    6.3255   -9.2904   -0.2315 H   0  0  0  0  0  0  0  0  0  0  0  0
    6.7586   -9.4839   -2.6698 H   0  0  0  0  0  0  0  0  0  0  0  0
    8.9100   -8.6877   -3.6153 H   0  0  0  0  0  0  0  0  0  0  0  0
   11.0261   -7.6766   -3.3979 H   0  0  0  0  0  0  0  0  0  0  0  0
   12.7941   -6.5604   -2.0527 H   0  0  0  0  0  0  0  0  0  0  0  0
   12.4492   -6.2161    0.3897 H   0  0  0  0  0  0  0  0  0  0  0  0
   10.3710   -7.0104    1.4746 H   0  0  0  0  0  0  0  0  0  0  0  0
    5.9760   -5.0600    5.1150 H   0  0  0  0  0  0  0  0  0  0  0  0
    7.2010   -5.2620    3.8710 H   0  0  0  0  0  0  0  0  0  0  0  0
  1  2  1  0
  2  3  2  0
  2  4  1  0
  4  5  1  0
  5  6  2  0
  6  7  1  0
  7  8  1  0
  8  9  2  0
  9 10  1  0
 10 11  2  0
 11 12  1  0
 12 13  2  0
 13 14  1  0
 14 15  2  0
 15 16  1  0
 16 17  2  0
  7 18  1  0
 18 19  2  0
 19 20  1  0
 20 21  1  0
 20 22  2  0
 19  5  1  0
 17  8  1  0
 17 12  1  0
  1 23  1  0
  1 24  1  0
  4 25  1  0
  6 26  1  0
  9 27  1  0
 10 28  1  0
 11 29  1  0
 13 30  1  0
 14 31  1  0
 15 32  1  0
 16 33  1  0
 21 34  1  0
 21 35  1  0
M  END
>  <meeko>  (6) 
{"is_sidechain": [false], "free_energy": -8.182, "intermolecular_energy": -9.758, "internal_energy": -0.7}

$$$$
4m0y_ligand
     RDKit          3D

 35 37  0  0  0  0  0  0  0  0999 V2000
   13.1020   -6.9140    3.2240 N   0  0  0  0  0  0  0  0  0  0  0  0
   11.9780   -6.8620    2.4520 C   0  0  0  0  0  0  0  0  0  0  0  0
   11.0700   -6.0970    2.7460 O   0  0  0  0  0  0  0  0  0  0  0  0
   12.0330   -7.7360    1.4020 N   0  0  0  0  0  0  0  0  0  0  0  0
   11.0600   -7.8930    0.4300 C   0  0  0  0  0  0  0  0  0  0  0  0
    9.7960   -8.4070    0.5600 C   0  0  0  0  0  0  0  0  0  0  0  0
    9.1910   -8.3660   -0.6820 N   0  0  0  0  0  0  0  0  0  0  0  0
    7.8980   -8.8810   -1.0280 C   0  0  0  0  0  0  0  0  0  0  0  0
    7.7840   -9.5560   -2.2620 C   0  0  0  0  0  0  0  0  0  0  0  0
    6.5550  -10.0260   -2.7080 C   0  0  0  0  0  0  0  0  0  0  0  0
    5.4200   -9.8330   -1.9320 C   0  0  0  0  0  0  0  0  0  0  0  0
    5.4930   -9.1870   -0.6910 C   0  0  0  0  0  0  0  0  0  0  0  0
    4.3110   -9.0410    0.0560 C   0  0  0  0  0  0  0  0  0  0  0  0
    4.3180   -8.4440    1.3120 C   0  0  0  0  0  0  0  0  0  0  0  0
    5.5150   -7.9940    1.8420 C   0  0  0  0  0  0  0  0  0  0  0  0
    6.6970   -8.1280    1.1050 C   0  0  0  0  0  0  0  0  0  0  0  0
    6.7370   -8.7040   -0.1970 C   0  0  0  0  0  0  0  0  0  0  0  0
   10.0260   -7.8200   -1.6040 N   0  0  0  0  0  0  0  0  0  0  0  0
   11.1600   -7.5390   -0.9370 C   0  0  0  0  0  0  0  0  0  0  0  0
   12.3230   -6.9420   -1.6030 C   0  0  0  0  0  0  0  0  0  0  0  0
   12.1370   -6.6570   -2.9260 N   0  0  0  0  0  0  0  0  0  0  0  0
   13.3880   -6.7190   -1.0320 O   0  0  0  0  0  0  0  0  0  0  0  0
   13.1160   -6.1960    3.9380 H   0  0  0  0  0  0  0  0  0  0  0  0
   13.9820   -7.0420    2.7460 H   0  0  0  0  0  0  0  0  0  0  0  0
   12.7990   -8.4010    1.3780 H   0  0  0  0  0  0  0  0  0  0  0  0
    9.3433   -8.7852    1.4884 H   0  0  0  0  0  0  0  0  0  0  0  0
    8.6808   -9.7122   -2.8795 H   0  0  0  0  0  0  0  0  0  0  0  0
    6.4814  -10.5493   -3.6727 H   0  0  0  0  0  0  0  0  0  0  0  0
    4.4472  -10.1933   -2.2977 H   0  0  0  0  0  0  0  0  0  0  0  0
    3.3612   -9.4065   -0.3615 H   0  0  0  0  0  0  0  0  0  0  0  0
    3.3819   -8.3305    1.8785 H   0  0  0  0  0  0  0  0  0  0  0  0
    5.5370   -7.5322    2.8401 H   0  0  0  0  0  0  0  0  0  0  0  0
    7.6375   -7.7725    1.5513 H   0  0  0  0  0  0  0  0  0  0  0  0
   12.9110   -6.3280   -3.4800 H   0  0  0  0  0  0  0  0  0  0  0  0
   11.2700   -6.9470   -3.3650 H   0  0  0  0  0  0  0  0  0  0  0  0
  1  2  1  0
  2  3  2  0
  2  4  1  0
  4  5  1  0
  5  6  2  0
  6  7  1  0
  7  8  1  0
  8  9  2  0
  9 10  1  0
 10 11  2  0
 11 12  1  0
 12 13  2  0
 13 14  1  0
 14 15  2  0
 15 16  1  0
 16 17  2  0
  7 18  1  0
 18 19  2  0
 19 20  1  0
 20 21  1  0
 20 22  2  0
 19  5  1  0
 17  8  1  0
 17 12  1  0
  1 23  1  0
  1 24  1  0
  4 25  1  0
  6 26  1  0
  9 27  1  0
 10 28  1  0
 11 29  1  0
 13 30  1  0
 14 31  1  0
 15 32  1  0
 16 33  1  0
 21 34  1  0
 21 35  1  0
M  END
>  <meeko>  (7) 
{"is_sidechain": [false], "free_energy": -8.145, "intermolecular_energy": -9.982, "internal_energy": -0.432}

$$$$
4m0y_ligand
     RDKit          3D

 35 37  0  0  0  0  0  0  0  0999 V2000
    3.4600   -5.9850    4.8840 N   0  0  0  0  0  0  0  0  0  0  0  0
    4.0900   -6.8800    4.0700 C   0  0  0  0  0  0  0  0  0  0  0  0
    3.5130   -7.9030    3.7250 O   0  0  0  0  0  0  0  0  0  0  0  0
    5.3570   -6.4820    3.7480 N   0  0  0  0  0  0  0  0  0  0  0  0
    6.2330   -7.1630    2.9200 C   0  0  0  0  0  0  0  0  0  0  0  0
    6.5420   -6.9110    1.6090 C   0  0  0  0  0  0  0  0  0  0  0  0
    7.4640   -7.8560    1.2010 N   0  0  0  0  0  0  0  0  0  0  0  0
    7.9990   -8.0240   -0.1190 C   0  0  0  0  0  0  0  0  0  0  0  0
    7.1510   -8.5990   -1.0890 C   0  0  0  0  0  0  0  0  0  0  0  0
    7.6100   -8.8610   -2.3740 C   0  0  0  0  0  0  0  0  0  0  0  0
    8.9200   -8.5530   -2.7150 C   0  0  0  0  0  0  0  0  0  0  0  0
    9.7890   -7.9610   -1.7890 C   0  0  0  0  0  0  0  0  0  0  0  0
   11.0960   -7.6540   -2.2010 C   0  0  0  0  0  0  0  0  0  0  0  0
   11.9990   -7.0310   -1.3450 C   0  0  0  0  0  0  0  0  0  0  0  0
   11.5960   -6.6970   -0.0640 C   0  0  0  0  0  0  0  0  0  0  0  0
   10.2990   -7.0020    0.3610 C   0  0  0  0  0  0  0  0  0  0  0  0
    9.3490   -7.6660   -0.4670 C   0  0  0  0  0  0  0  0  0  0  0  0
    7.7710   -8.6990    2.2220 N   0  0  0  0  0  0  0  0  0  0  0  0
    7.0230   -8.2870    3.2610 C   0  0  0  0  0  0  0  0  0  0  0  0
    7.0650   -8.9640    4.5620 C   0  0  0  0  0  0  0  0  0  0  0  0
    8.3150   -9.3290    4.9740 N   0  0  0  0  0  0  0  0  0  0  0  0
    6.0640   -9.2000    5.2340 O   0  0  0  0  0  0  0  0  0  0  0  0
    2.4860   -6.2180    5.0380 H   0  0  0  0  0  0  0  0  0  0  0  0
    3.6280   -5.0050    4.7070 H   0  0  0  0  0  0  0  0  0  0  0  0
    5.7360   -5.6730    4.2300 H   0  0  0  0  0  0  0  0  0  0  0  0
    6.1292   -6.1001    0.9909 H   0  0  0  0  0  0  0  0  0  0  0  0
    6.1117   -8.8434   -0.8242 H   0  0  0  0  0  0  0  0  0  0  0  0
    6.9374   -9.3111   -3.1189 H   0  0  0  0  0  0  0  0  0  0  0  0
    9.2818   -8.7775   -3.7292 H   0  0  0  0  0  0  0  0  0  0  0  0
   11.4127   -7.9116   -3.2224 H   0  0  0  0  0  0  0  0  0  0  0  0
   13.0215   -6.8066   -1.6827 H   0  0  0  0  0  0  0  0  0  0  0  0
   12.2949   -6.1922    0.6191 H   0  0  0  0  0  0  0  0  0  0  0  0
    9.9991   -6.7164    1.3801 H   0  0  0  0  0  0  0  0  0  0  0  0
    8.4260   -9.8780    5.8120 H   0  0  0  0  0  0  0  0  0  0  0  0
    9.0930   -9.1910    4.3370 H   0  0  0  0  0  0  0  0  0  0  0  0
  1  2  1  0
  2  3  2  0
  2  4  1  0
  4  5  1  0
  5  6  2  0
  6  7  1  0
  7  8  1  0
  8  9  2  0
  9 10  1  0
 10 11  2  0
 11 12  1  0
 12 13  2  0
 13 14  1  0
 14 15  2  0
 15 16  1  0
 16 17  2  0
  7 18  1  0
 18 19  2  0
 19 20  1  0
 20 21  1  0
 20 22  2  0
 19  5  1  0
 17  8  1  0
 17 12  1  0
  1 23  1  0
  1 24  1  0
  4 25  1  0
  6 26  1  0
  9 27  1  0
 10 28  1  0
 11 29  1  0
 13 30  1  0
 14 31  1  0
 15 32  1  0
 16 33  1  0
 21 34  1  0
 21 35  1  0
M  END
>  <meeko>  (8) 
{"is_sidechain": [false], "free_energy": -8.127, "intermolecular_energy": -9.674, "internal_energy": -0.719}

$$$$
4m0y_ligand
     RDKit          3D

 35 37  0  0  0  0  0  0  0  0999 V2000
   14.4370   -6.7170    3.4120 N   0  0  0  0  0  0  0  0  0  0  0  0
   13.1880   -6.4990    2.9070 C   0  0  0  0  0  0  0  0  0  0  0  0
   12.5000   -5.5900    3.3520 O   0  0  0  0  0  0  0  0  0  0  0  0
   12.8660   -7.3920    1.9240 N   0  0  0  0  0  0  0  0  0  0  0  0
   11.6840   -7.4090    1.2040 C   0  0  0  0  0  0  0  0  0  0  0  0
   10.4170   -7.6900    1.6450 C   0  0  0  0  0  0  0  0  0  0  0  0
    9.5590   -7.5850    0.5670 N   0  0  0  0  0  0  0  0  0  0  0  0
    8.1550   -7.8770    0.5510 C   0  0  0  0  0  0  0  0  0  0  0  0
    7.3870   -7.3990    1.6340 C   0  0  0  0  0  0  0  0  0  0  0  0
    6.0330   -7.6940    1.7360 C   0  0  0  0  0  0  0  0  0  0  0  0
    5.4210   -8.4680    0.7590 C   0  0  0  0  0  0  0  0  0  0  0  0
    6.1420   -8.9450   -0.3440 C   0  0  0  0  0  0  0  0  0  0  0  0
    5.4600   -9.7060   -1.3080 C   0  0  0  0  0  0  0  0  0  0  0  0
    6.1060  -10.1780   -2.4470 C   0  0  0  0  0  0  0  0  0  0  0  0
    7.4440   -9.8830   -2.6380 C   0  0  0  0  0  0  0  0  0  0  0  0
    8.1350   -9.1310   -1.6820 C   0  0  0  0  0  0  0  0  0  0  0  0
    7.5270   -8.6520   -0.4870 C   0  0  0  0  0  0  0  0  0  0  0  0
   10.2380   -7.2240   -0.5530 N   0  0  0  0  0  0  0  0  0  0  0  0
   11.5250   -7.1230   -0.1740 C   0  0  0  0  0  0  0  0  0  0  0  0
   12.5850   -6.7610   -1.1200 C   0  0  0  0  0  0  0  0  0  0  0  0
   12.1460   -6.4500   -2.3760 N   0  0  0  0  0  0  0  0  0  0  0  0
   13.7770   -6.7420   -0.8240 O   0  0  0  0  0  0  0  0  0  0  0  0
   14.7240   -5.9960    4.0620 H   0  0  0  0  0  0  0  0  0  0  0  0
   15.1540   -6.9960    2.7580 H   0  0  0  0  0  0  0  0  0  0  0  0
   13.4950   -8.1730    1.7680 H   0  0  0  0  0  0  0  0  0  0  0  0
   10.1334   -7.9526    2.6749 H   0  0  0  0  0  0  0  0  0  0  0  0
    7.8674   -6.7837    2.4090 H   0  0  0  0  0  0  0  0  0  0  0  0
    5.4482   -7.3158    2.5874 H   0  0  0  0  0  0  0  0  0  0  0  0
    4.3522   -8.7108    0.8524 H   0  0  0  0  0  0  0  0  0  0  0  0
    4.3940   -9.9334   -1.1597 H   0  0  0  0  0  0  0  0  0  0  0  0
    5.5583  -10.7793   -3.1876 H   0  0  0  0  0  0  0  0  0  0  0  0
    7.9635  -10.2391   -3.5398 H   0  0  0  0  0  0  0  0  0  0  0  0
    9.1953   -8.8994   -1.8615 H   0  0  0  0  0  0  0  0  0  0  0  0
   12.8130   -6.2760   -3.1100 H   0  0  0  0  0  0  0  0  0  0  0  0
   11.1610   -6.5710   -2.5870 H   0  0  0  0  0  0  0  0  0  0  0  0
  1  2  1  0
  2  3  2  0
  2  4  1  0
  4  5  1  0
  5  6  2  0
  6  7  1  0
  7  8  1  0
  8  9  2  0
  9 10  1  0
 10 11  2  0
 11 12  1  0
 12 13  2  0
 13 14  1  0
 14 15  2  0
 15 16  1  0
 16 17  2  0
  7 18  1  0
 18 19  2  0
 19 20  1  0
 20 21  1  0
 20 22  2  0
 19  5  1  0
 17  8  1  0
 17 12  1  0
  1 23  1  0
  1 24  1  0
  4 25  1  0
  6 26  1  0
  9 27  1  0
 10 28  1  0
 11 29  1  0
 13 30  1  0
 14 31  1  0
 15 32  1  0
 16 33  1  0
 21 34  1  0
 21 35  1  0
M  END
>  <meeko>  (9) 
{"is_sidechain": [false], "free_energy": -8.034, "intermolecular_energy": -9.865, "internal_energy": -0.419}

$$$$
