2xb8_ligand
     RDKit          3D

 39 40  0  0  0  0  0  0  0  0999 V2000
   -3.6730   22.9860   -3.3000 C   0  0  0  0  0  0  0  0  0  0  0  0
   -3.0370   23.9740   -2.5010 O   0  0  0  0  0  0  0  0  0  0  0  0
   -1.9710   24.6230   -3.0650 C   0  0  0  0  0  0  0  0  0  0  0  0
   -0.6700   24.6500   -2.5630 C   0  0  0  0  0  0  0  0  0  0  0  0
    0.3290   25.3560   -3.2410 C   0  0  0  0  0  0  0  0  0  0  0  0
    0.0410   26.0470   -4.4230 C   0  0  0  0  0  0  0  0  0  0  0  0
    1.1320   26.7900   -5.1590 C   0  0  0  0  0  0  0  0  0  0  0  0
    1.6040   28.0500   -4.4000 C   0  0  1  0  0  0  0  0  0  0  0  0
    3.1280   27.9870   -4.3010 C   0  0  0  0  0  0  0  0  0  0  0  0
    3.6950   27.1850   -3.5470 O   0  0  0  0  0  0  0  0  0  0  0  0
    3.9540   28.8320   -5.2670 C   0  0  1  0  0  0  0  0  0  0  0  0
    5.1750   28.1380   -5.5930 O   0  0  0  0  0  0  0  0  0  0  0  0
    3.1690   29.0310   -6.5590 C   0  0  2  0  0  0  0  0  0  0  0  0
    3.9680   29.7280   -7.5250 O   0  0  0  0  0  0  0  0  0  0  0  0
    1.8550   29.7710   -6.3380 C   0  0  0  0  0  0  0  0  0  0  0  0
    1.1230   29.3610   -5.0510 C   0  0  1  0  0  0  0  0  0  0  0  0
   -0.2960   29.2670   -5.3620 O   0  0  0  0  0  0  0  0  0  0  0  0
    1.2950   30.5120   -3.9910 C   0  0  0  0  0  0  0  0  0  0  0  0
    0.9170   30.2480   -2.8210 O   0  0  0  0  0  0  0  0  0  0  0  0
    1.7990   31.5660   -4.4830 O   0  0  0  0  0  0  0  0  0  0  0  0
   -1.2620   26.0070   -4.9300 C   0  0  0  0  0  0  0  0  0  0  0  0
   -2.2600   25.3050   -4.2490 C   0  0  0  0  0  0  0  0  0  0  0  0
   -4.1528   22.2407   -2.6486 H   0  0  0  0  0  0  0  0  0  0  0  0
   -4.4345   23.4624   -3.9350 H   0  0  0  0  0  0  0  0  0  0  0  0
   -2.9241   22.4901   -3.9350 H   0  0  0  0  0  0  0  0  0  0  0  0
   -0.4293   24.1152   -1.6324 H   0  0  0  0  0  0  0  0  0  0  0  0
    1.3533   25.3681   -2.8402 H   0  0  0  0  0  0  0  0  0  0  0  0
    1.9908   26.1155   -5.2917 H   0  0  0  0  0  0  0  0  0  0  0  0
    0.7213   27.1160   -6.1260 H   0  0  0  0  0  0  0  0  0  0  0  0
    1.1553   28.0570   -3.3957 H   0  0  0  0  0  0  0  0  0  0  0  0
    4.1779   29.8003   -4.7954 H   0  0  0  0  0  0  0  0  0  0  0  0
    4.9260   27.5730   -6.3540 H   0  0  0  0  0  0  0  0  0  0  0  0
    2.9192   28.0293   -6.9388 H   0  0  0  0  0  0  0  0  0  0  0  0
    4.8750   29.3890   -7.3830 H   0  0  0  0  0  0  0  0  0  0  0  0
    2.0680   30.8490   -6.2878 H   0  0  0  0  0  0  0  0  0  0  0  0
    1.1952   29.5117   -7.1791 H   0  0  0  0  0  0  0  0  0  0  0  0
   -0.3720   28.3410   -5.7120 H   0  0  0  0  0  0  0  0  0  0  0  0
   -1.5018   26.5298   -5.8677 H   0  0  0  0  0  0  0  0  0  0  0  0
   -3.2843   25.2894   -4.6498 H   0  0  0  0  0  0  0  0  0  0  0  0
  1  2  1  0
  2  3  1  0
  3  4  2  0
  4  5  1  0
  5  6  2  0
  6  7  1  0
  7  8  1  0
  8  9  1  0
  9 10  2  0
  9 11  1  0
 11 12  1  0
 11 13  1  0
 13 14  1  0
 13 15  1  0
 15 16  1  0
 16 17  1  6
 16 18  1  0
 18 19  2  0
 18 20  1  0
  6 21  1  0
 21 22  2  0
 22  3  1  0
 16  8  1  0
  1 23  1  0
  1 24  1  0
  1 25  1  0
  4 26  1  0
  5 27  1  0
  7 28  1  0
  7 29  1  0
  8 30  1  1
 11 31  1  1
 12 32  1  0
 13 33  1  6
 14 34  1  0
 15 35  1  0
 15 36  1  0
 17 37  1  0
 21 38  1  0
 22 39  1  0
M  CHG  1  20  -1
M  END
>  <meeko>  (1) 
{"is_sidechain": [false], "free_energy": -5.984, "intermolecular_energy": -7.908, "internal_energy": -0.681}

$$$$
2xb8_ligand
     RDKit          3D

 39 40  0  0  0  0  0  0  0  0999 V2000
   -4.8530   25.3470   -3.2570 C   0  0  0  0  0  0  0  0  0  0  0  0
   -3.6700   25.6910   -2.5490 O   0  0  0  0  0  0  0  0  0  0  0  0
   -2.7260   26.3980   -3.2460 C   0  0  0  0  0  0  0  0  0  0  0  0
   -2.4530   27.7580   -3.1060 C   0  0  0  0  0  0  0  0  0  0  0  0
   -1.4580   28.3590   -3.8840 C   0  0  0  0  0  0  0  0  0  0  0  0
   -0.7280   27.6100   -4.8140 C   0  0  0  0  0  0  0  0  0  0  0  0
    0.3590   28.2630   -5.6370 C   0  0  0  0  0  0  0  0  0  0  0  0
    1.2640   29.1870   -4.7920 C   0  0  1  0  0  0  0  0  0  0  0  0
    2.6640   28.5740   -4.7770 C   0  0  0  0  0  0  0  0  0  0  0  0
    2.9160   27.5490   -4.1290 O   0  0  0  0  0  0  0  0  0  0  0  0
    3.7240   29.1640   -5.7040 C   0  0  1  0  0  0  0  0  0  0  0  0
    4.6080   28.1170   -6.1530 O   0  0  0  0  0  0  0  0  0  0  0  0
    3.0440   29.7620   -6.9300 C   0  0  2  0  0  0  0  0  0  0  0  0
    4.0260   30.2240   -7.8680 O   0  0  0  0  0  0  0  0  0  0  0  0
    2.0880   30.8950   -6.5760 C   0  0  0  0  0  0  0  0  0  0  0  0
    1.2780   30.6430   -5.2960 C   0  0  1  0  0  0  0  0  0  0  0  0
   -0.0850   31.0940   -5.5400 O   0  0  0  0  0  0  0  0  0  0  0  0
    1.8680   31.5400   -4.1460 C   0  0  0  0  0  0  0  0  0  0  0  0
    2.7650   32.3550   -4.4840 O   0  0  0  0  0  0  0  0  0  0  0  0
    1.3430   31.3050   -3.0150 O   0  0  0  0  0  0  0  0  0  0  0  0
   -0.9970   26.2430   -4.9430 C   0  0  0  0  0  0  0  0  0  0  0  0
   -1.9940   25.6460   -4.1680 C   0  0  0  0  0  0  0  0  0  0  0  0
   -5.6545   25.1139   -2.5405 H   0  0  0  0  0  0  0  0  0  0  0  0
   -5.1610   26.1928   -3.8893 H   0  0  0  0  0  0  0  0  0  0  0  0
   -4.6594   24.4680   -3.8893 H   0  0  0  0  0  0  0  0  0  0  0  0
   -3.0216   28.3600   -2.3818 H   0  0  0  0  0  0  0  0  0  0  0  0
   -1.2470   29.4318   -3.7636 H   0  0  0  0  0  0  0  0  0  0  0  0
    0.9811   27.4760   -6.0883 H   0  0  0  0  0  0  0  0  0  0  0  0
   -0.1282   28.8821   -6.4047 H   0  0  0  0  0  0  0  0  0  0  0  0
    0.8627   29.2511   -3.7698 H   0  0  0  0  0  0  0  0  0  0  0  0
    4.2887   29.9351   -5.1594 H   0  0  0  0  0  0  0  0  0  0  0  0
    4.2140   27.3020   -5.7790 H   0  0  0  0  0  0  0  0  0  0  0  0
    2.4444   28.9603   -7.3858 H   0  0  0  0  0  0  0  0  0  0  0  0
    3.8840   31.1910   -7.9150 H   0  0  0  0  0  0  0  0  0  0  0  0
    2.6754   31.8150   -6.4396 H   0  0  0  0  0  0  0  0  0  0  0  0
    1.3662   30.9760   -7.4021 H   0  0  0  0  0  0  0  0  0  0  0  0
   -0.3220   30.6000   -6.3680 H   0  0  0  0  0  0  0  0  0  0  0  0
   -0.4212   25.6362   -5.6574 H   0  0  0  0  0  0  0  0  0  0  0  0
   -2.2049   24.5728   -4.2849 H   0  0  0  0  0  0  0  0  0  0  0  0
  1  2  1  0
  2  3  1  0
  3  4  2  0
  4  5  1  0
  5  6  2  0
  6  7  1  0
  7  8  1  0
  8  9  1  0
  9 10  2  0
  9 11  1  0
 11 12  1  0
 11 13  1  0
 13 14  1  0
 13 15  1  0
 15 16  1  0
 16 17  1  6
 16 18  1  0
 18 19  2  0
 18 20  1  0
  6 21  1  0
 21 22  2  0
 22  3  1  0
 16  8  1  0
  1 23  1  0
  1 24  1  0
  1 25  1  0
  4 26  1  0
  5 27  1  0
  7 28  1  0
  7 29  1  0
  8 30  1  1
 11 31  1  1
 12 32  1  0
 13 33  1  6
 14 34  1  0
 15 35  1  0
 15 36  1  0
 17 37  1  0
 21 38  1  0
 22 39  1  0
M  CHG  1  20  -1
M  END
>  <meeko>  (2) 
{"is_sidechain": [false], "free_energy": -5.868, "intermolecular_energy": -7.69, "internal_energy": -0.746}

$$$$
2xb8_ligand
     RDKit          3D

 39 40  0  0  0  0  0  0  0  0999 V2000
   -3.7410   22.6690   -3.1170 C   0  0  0  0  0  0  0  0  0  0  0  0
   -3.6440   24.0720   -2.9130 O   0  0  0  0  0  0  0  0  0  0  0  0
   -2.5170   24.6820   -3.3950 C   0  0  0  0  0  0  0  0  0  0  0  0
   -2.4460   25.4940   -4.5260 C   0  0  0  0  0  0  0  0  0  0  0  0
   -1.2250   26.0580   -4.9110 C   0  0  0  0  0  0  0  0  0  0  0  0
   -0.0600   25.8120   -4.1750 C   0  0  0  0  0  0  0  0  0  0  0  0
    1.2510   26.4410   -4.5870 C   0  0  0  0  0  0  0  0  0  0  0  0
    1.4020   27.8870   -4.0650 C   0  0  1  0  0  0  0  0  0  0  0  0
    2.5760   27.9050   -3.0860 C   0  0  0  0  0  0  0  0  0  0  0  0
    2.4890   27.3900   -1.9630 O   0  0  0  0  0  0  0  0  0  0  0  0
    3.9200   28.4390   -3.5730 C   0  0  1  0  0  0  0  0  0  0  0  0
    4.9880   27.7170   -2.9280 O   0  0  0  0  0  0  0  0  0  0  0  0
    4.0380   28.2080   -5.0750 C   0  0  2  0  0  0  0  0  0  0  0  0
    5.3380   28.6010   -5.5390 O   0  0  0  0  0  0  0  0  0  0  0  0
    2.9600   28.9390   -5.8670 C   0  0  0  0  0  0  0  0  0  0  0  0
    1.5790   28.9200   -5.1940 C   0  0  1  0  0  0  0  0  0  0  0  0
    0.5850   28.6920   -6.2330 O   0  0  0  0  0  0  0  0  0  0  0  0
    1.3000   30.3450   -4.5860 C   0  0  0  0  0  0  0  0  0  0  0  0
    0.3180   30.4310   -3.8050 O   0  0  0  0  0  0  0  0  0  0  0  0
    2.1260   31.2220   -4.9830 O   0  0  0  0  0  0  0  0  0  0  0  0
   -0.1380   25.0070   -3.0340 C   0  0  0  0  0  0  0  0  0  0  0  0
   -1.3570   24.4420   -2.6540 C   0  0  0  0  0  0  0  0  0  0  0  0
   -3.7763   22.1585   -2.1433 H   0  0  0  0  0  0  0  0  0  0  0  0
   -4.6569   22.4432   -3.6828 H   0  0  0  0  0  0  0  0  0  0  0  0
   -2.8649   22.3193   -3.6828 H   0  0  0  0  0  0  0  0  0  0  0  0
   -3.3523   25.6917   -5.1172 H   0  0  0  0  0  0  0  0  0  0  0  0
   -1.1799   26.7018   -5.8018 H   0  0  0  0  0  0  0  0  0  0  0  0
    2.0755   25.8331   -4.1861 H   0  0  0  0  0  0  0  0  0  0  0  0
    1.2737   26.4779   -5.6861 H   0  0  0  0  0  0  0  0  0  0  0  0
    0.4740   28.1869   -3.5562 H   0  0  0  0  0  0  0  0  0  0  0  0
    3.9868   29.5117   -3.3388 H   0  0  0  0  0  0  0  0  0  0  0  0
    5.4060   28.3870   -2.3480 H   0  0  0  0  0  0  0  0  0  0  0  0
    3.8937   27.1308   -5.2447 H   0  0  0  0  0  0  0  0  0  0  0  0
    5.2730   28.5590   -6.5140 H   0  0  0  0  0  0  0  0  0  0  0  0
    3.2711   29.9867   -5.9917 H   0  0  0  0  0  0  0  0  0  0  0  0
    2.8562   28.4145   -6.8283 H   0  0  0  0  0  0  0  0  0  0  0  0
    0.4630   29.6030   -6.6080 H   0  0  0  0  0  0  0  0  0  0  0  0
    0.7643   24.8183   -2.4338 H   0  0  0  0  0  0  0  0  0  0  0  0
   -1.4046   23.8009   -1.7614 H   0  0  0  0  0  0  0  0  0  0  0  0
  1  2  1  0
  2  3  1  0
  3  4  2  0
  4  5  1  0
  5  6  2  0
  6  7  1  0
  7  8  1  0
  8  9  1  0
  9 10  2  0
  9 11  1  0
 11 12  1  0
 11 13  1  0
 13 14  1  0
 13 15  1  0
 15 16  1  0
 16 17  1  6
 16 18  1  0
 18 19  2  0
 18 20  1  0
  6 21  1  0
 21 22  2  0
 22  3  1  0
 16  8  1  0
  1 23  1  0
  1 24  1  0
  1 25  1  0
  4 26  1  0
  5 27  1  0
  7 28  1  0
  7 29  1  0
  8 30  1  1
 11 31  1  6
 12 32  1  0
 13 33  1  1
 14 34  1  0
 15 35  1  0
 15 36  1  0
 17 37  1  0
 21 38  1  0
 22 39  1  0
M  CHG  1  20  -1
M  END
>  <meeko>  (3) 
{"is_sidechain": [false], "free_energy": -5.746, "intermolecular_energy": -7.533, "internal_energy": -0.742}

$$$$
2xb8_ligand
     RDKit          3D

 39 40  0  0  0  0  0  0  0  0999 V2000
   -2.4260   25.5890   -4.5290 C   0  0  0  0  0  0  0  0  0  0  0  0
   -1.2690   25.7600   -3.7220 O   0  0  0  0  0  0  0  0  0  0  0  0
   -0.2460   26.4880   -4.2690 C   0  0  0  0  0  0  0  0  0  0  0  0
    1.1000   26.1230   -4.2870 C   0  0  0  0  0  0  0  0  0  0  0  0
    2.0480   26.9620   -4.8790 C   0  0  0  0  0  0  0  0  0  0  0  0
    1.6660   28.1790   -5.4560 C   0  0  0  0  0  0  0  0  0  0  0  0
    2.6940   29.0710   -6.1120 C   0  0  0  0  0  0  0  0  0  0  0  0
    2.2250   30.5400   -6.2100 C   0  0  1  0  0  0  0  0  0  0  0  0
    3.0830   31.3640   -5.2500 C   0  0  0  0  0  0  0  0  0  0  0  0
    2.9390   31.2840   -4.0230 O   0  0  0  0  0  0  0  0  0  0  0  0
    4.2340   32.1840   -5.8270 C   0  0  1  0  0  0  0  0  0  0  0  0
    5.3200   32.2230   -4.8800 O   0  0  0  0  0  0  0  0  0  0  0  0
    4.7430   31.5130   -7.0970 C   0  0  2  0  0  0  0  0  0  0  0  0
    5.8960   32.2030   -7.5980 O   0  0  0  0  0  0  0  0  0  0  0  0
    3.6760   31.4260   -8.1830 C   0  0  0  0  0  0  0  0  0  0  0  0
    2.2750   31.0930   -7.6470 C   0  0  1  0  0  0  0  0  0  0  0  0
    1.6670   30.1410   -8.5650 O   0  0  0  0  0  0  0  0  0  0  0  0
    1.4010   32.4020   -7.6850 C   0  0  0  0  0  0  0  0  0  0  0  0
    0.4290   32.4430   -6.8880 O   0  0  0  0  0  0  0  0  0  0  0  0
    1.8130   33.2470   -8.5370 O   0  0  0  0  0  0  0  0  0  0  0  0
    0.3130   28.5360   -5.4460 C   0  0  0  0  0  0  0  0  0  0  0  0
   -0.6320   27.6980   -4.8500 C   0  0  0  0  0  0  0  0  0  0  0  0
   -3.3072   25.4588   -3.8836 H   0  0  0  0  0  0  0  0  0  0  0  0
   -2.5645   26.4764   -5.1640 H   0  0  0  0  0  0  0  0  0  0  0  0
   -2.3019   24.6994   -5.1640 H   0  0  0  0  0  0  0  0  0  0  0  0
    1.4163   25.1719   -3.8339 H   0  0  0  0  0  0  0  0  0  0  0  0
    3.1064   26.6627   -4.8917 H   0  0  0  0  0  0  0  0  0  0  0  0
    3.6210   29.0351   -5.5209 H   0  0  0  0  0  0  0  0  0  0  0  0
    2.8532   28.7015   -7.1358 H   0  0  0  0  0  0  0  0  0  0  0  0
    1.1645   30.6023   -5.9247 H   0  0  0  0  0  0  0  0  0  0  0  0
    3.8770   33.2018   -6.0429 H   0  0  0  0  0  0  0  0  0  0  0  0
    5.7560   33.0820   -5.0600 H   0  0  0  0  0  0  0  0  0  0  0  0
    5.0167   30.4829   -6.8252 H   0  0  0  0  0  0  0  0  0  0  0  0
    6.5520   32.1420   -6.8740 H   0  0  0  0  0  0  0  0  0  0  0  0
    3.6282   32.3950   -8.7014 H   0  0  0  0  0  0  0  0  0  0  0  0
    3.9669   30.6047   -8.8545 H   0  0  0  0  0  0  0  0  0  0  0  0
    1.8400   29.2750   -8.1110 H   0  0  0  0  0  0  0  0  0  0  0  0
   -0.0076   29.4806   -5.9095 H   0  0  0  0  0  0  0  0  0  0  0  0
   -1.6913   27.9940   -4.8380 H   0  0  0  0  0  0  0  0  0  0  0  0
  1  2  1  0
  2  3  1  0
  3  4  2  0
  4  5  1  0
  5  6  2  0
  6  7  1  0
  7  8  1  0
  8  9  1  0
  9 10  2  0
  9 11  1  0
 11 12  1  0
 11 13  1  0
 13 14  1  0
 13 15  1  0
 15 16  1  0
 16 17  1  6
 16 18  1  0
 18 19  2  0
 18 20  1  0
  6 21  1  0
 21 22  2  0
 22  3  1  0
 16  8  1  0
  1 23  1  0
  1 24  1  0
  1 25  1  0
  4 26  1  0
  5 27  1  0
  7 28  1  0
  7 29  1  0
  8 30  1  1
 11 31  1  6
 12 32  1  0
 13 33  1  1
 14 34  1  0
 15 35  1  0
 15 36  1  0
 17 37  1  0
 21 38  1  0
 22 39  1  0
M  CHG  1  20  -1
M  END
>  <meeko>  (4) 
{"is_sidechain": [false], "free_energy": -5.486, "intermolecular_energy": -7.215, "internal_energy": -0.716}

$$$$
2xb8_ligand
     RDKit          3D

 39 40  0  0  0  0  0  0  0  0999 V2000
    0.2920   25.1840   -3.2510 C   0  0  0  0  0  0  0  0  0  0  0  0
   -0.0360   25.8980   -4.4340 O   0  0  0  0  0  0  0  0  0  0  0  0
    0.8180   26.9060   -4.7960 C   0  0  0  0  0  0  0  0  0  0  0  0
    0.4820   28.0380   -5.5370 C   0  0  0  0  0  0  0  0  0  0  0  0
    1.4550   28.9950   -5.8400 C   0  0  0  0  0  0  0  0  0  0  0  0
    2.7770   28.8310   -5.4110 C   0  0  0  0  0  0  0  0  0  0  0  0
    3.8190   29.8800   -5.7250 C   0  0  0  0  0  0  0  0  0  0  0  0
    3.2000   31.1710   -6.3050 C   0  0  1  0  0  0  0  0  0  0  0  0
    3.2520   32.2400   -5.2140 C   0  0  0  0  0  0  0  0  0  0  0  0
    2.5060   32.1940   -4.2260 O   0  0  0  0  0  0  0  0  0  0  0  0
    4.3530   33.2950   -5.2840 C   0  0  1  0  0  0  0  0  0  0  0  0
    4.7530   33.6640   -3.9490 O   0  0  0  0  0  0  0  0  0  0  0  0
    5.5690   32.7080   -5.9920 C   0  0  2  0  0  0  0  0  0  0  0  0
    6.6560   33.6430   -5.9720 O   0  0  0  0  0  0  0  0  0  0  0  0
    5.2660   32.2900   -7.4260 C   0  0  0  0  0  0  0  0  0  0  0  0
    3.8860   31.6380   -7.6030 C   0  0  1  0  0  0  0  0  0  0  0  0
    4.0430   30.5120   -8.5120 O   0  0  0  0  0  0  0  0  0  0  0  0
    2.9310   32.6750   -8.3030 C   0  0  0  0  0  0  0  0  0  0  0  0
    1.7220   32.3390   -8.3960 O   0  0  0  0  0  0  0  0  0  0  0  0
    3.5330   33.7240   -8.6830 O   0  0  0  0  0  0  0  0  0  0  0  0
    3.1080   27.7000   -4.6570 C   0  0  0  0  0  0  0  0  0  0  0  0
    2.1350   26.7430   -4.3590 C   0  0  0  0  0  0  0  0  0  0  0  0
    0.0161   25.7847   -2.3718 H   0  0  0  0  0  0  0  0  0  0  0  0
   -0.2591   24.2322   -3.2325 H   0  0  0  0  0  0  0  0  0  0  0  0
    1.3731   24.9821   -3.2325 H   0  0  0  0  0  0  0  0  0  0  0  0
   -0.5522   28.1787   -5.8844 H   0  0  0  0  0  0  0  0  0  0  0  0
    1.1785   29.8866   -6.4219 H   0  0  0  0  0  0  0  0  0  0  0  0
    4.3571   30.1315   -4.7991 H   0  0  0  0  0  0  0  0  0  0  0  0
    4.4963   29.4626   -6.4846 H   0  0  0  0  0  0  0  0  0  0  0  0
    2.1581   30.9734   -6.5972 H   0  0  0  0  0  0  0  0  0  0  0  0
    3.9742   34.1732   -5.8274 H   0  0  0  0  0  0  0  0  0  0  0  0
    5.1820   34.5370   -4.0670 H   0  0  0  0  0  0  0  0  0  0  0  0
    5.8529   31.7993   -5.4410 H   0  0  0  0  0  0  0  0  0  0  0  0
    7.3650   33.2050   -6.4860 H   0  0  0  0  0  0  0  0  0  0  0  0
    5.3117   33.1842   -8.0650 H   0  0  0  0  0  0  0  0  0  0  0  0
    6.0155   31.5347   -7.7049 H   0  0  0  0  0  0  0  0  0  0  0  0
    4.9680   30.6440   -8.8490 H   0  0  0  0  0  0  0  0  0  0  0  0
    4.1386   27.5638   -4.2974 H   0  0  0  0  0  0  0  0  0  0  0  0
    2.4084   25.8522   -3.7745 H   0  0  0  0  0  0  0  0  0  0  0  0
  1  2  1  0
  2  3  1  0
  3  4  2  0
  4  5  1  0
  5  6  2  0
  6  7  1  0
  7  8  1  0
  8  9  1  0
  9 10  2  0
  9 11  1  0
 11 12  1  0
 11 13  1  0
 13 14  1  0
 13 15  1  0
 15 16  1  0
 16 17  1  6
 16 18  1  0
 18 19  2  0
 18 20  1  0
  6 21  1  0
 21 22  2  0
 22  3  1  0
 16  8  1  0
  1 23  1  0
  1 24  1  0
  1 25  1  0
  4 26  1  0
  5 27  1  0
  7 28  1  0
  7 29  1  0
  8 30  1  6
 11 31  1  6
 12 32  1  0
 13 33  1  1
 14 34  1  0
 15 35  1  0
 15 36  1  0
 17 37  1  0
 21 38  1  0
 22 39  1  0
M  CHG  1  20  -1
M  END
>  <meeko>  (5) 
{"is_sidechain": [false], "free_energy": -5.333, "intermolecular_energy": -6.953, "internal_energy": -0.777}

$$$$
2xb8_ligand
     RDKit          3D

 39 40  0  0  0  0  0  0  0  0999 V2000
    2.7810   27.3240   -3.7750 C   0  0  0  0  0  0  0  0  0  0  0  0
    2.3410   25.9810   -3.6350 O   0  0  0  0  0  0  0  0  0  0  0  0
    0.9940   25.7650   -3.7600 C   0  0  0  0  0  0  0  0  0  0  0  0
    0.1870   25.0790   -2.8520 C   0  0  0  0  0  0  0  0  0  0  0  0
   -1.1810   24.9270   -3.1020 C   0  0  0  0  0  0  0  0  0  0  0  0
   -1.7580   25.4530   -4.2630 C   0  0  0  0  0  0  0  0  0  0  0  0
   -3.2410   25.3020   -4.5160 C   0  0  0  0  0  0  0  0  0  0  0  0
   -3.9850   24.6890   -3.3090 C   0  0  1  0  0  0  0  0  0  0  0  0
   -4.7070   25.8260   -2.5860 C   0  0  0  0  0  0  0  0  0  0  0  0
   -4.0880   26.6650   -1.9180 O   0  0  0  0  0  0  0  0  0  0  0  0
   -6.2050   26.0010   -2.8230 C   0  0  1  0  0  0  0  0  0  0  0  0
   -6.5410   27.4020   -2.7700 O   0  0  0  0  0  0  0  0  0  0  0  0
   -6.5580   25.4870   -4.2140 C   0  0  2  0  0  0  0  0  0  0  0  0
   -7.9390   25.7420   -4.5030 O   0  0  0  0  0  0  0  0  0  0  0  0
   -6.2560   24.0020   -4.3830 C   0  0  0  0  0  0  0  0  0  0  0  0
   -4.9500   23.5560   -3.7080 C   0  0  1  0  0  0  0  0  0  0  0  0
   -4.2790   22.6320   -4.6120 O   0  0  0  0  0  0  0  0  0  0  0  0
   -5.3110   22.7540   -2.4030 C   0  0  0  0  0  0  0  0  0  0  0  0
   -6.5360   22.6450   -2.1410 O   0  0  0  0  0  0  0  0  0  0  0  0
   -4.2880   22.3260   -1.7870 O   0  0  0  0  0  0  0  0  0  0  0  0
   -0.9480   26.1510   -5.1650 C   0  0  0  0  0  0  0  0  0  0  0  0
    0.4190   26.2970   -4.9160 C   0  0  0  0  0  0  0  0  0  0  0  0
    2.9264   27.7679   -2.7791 H   0  0  0  0  0  0  0  0  0  0  0  0
    3.7322   27.3425   -4.3272 H   0  0  0  0  0  0  0  0  0  0  0  0
    2.0252   27.9018   -4.3272 H   0  0  0  0  0  0  0  0  0  0  0  0
    0.6276   24.6565   -1.9369 H   0  0  0  0  0  0  0  0  0  0  0  0
   -1.8098   24.3881   -2.3780 H   0  0  0  0  0  0  0  0  0  0  0  0
   -3.6663   26.2944   -4.7262 H   0  0  0  0  0  0  0  0  0  0  0  0
   -3.3678   24.6200   -5.3697 H   0  0  0  0  0  0  0  0  0  0  0  0
   -3.2561   24.2101   -2.6387 H   0  0  0  0  0  0  0  0  0  0  0  0
   -6.7579   25.4445   -2.0519 H   0  0  0  0  0  0  0  0  0  0  0  0
   -5.9780   27.7500   -2.0470 H   0  0  0  0  0  0  0  0  0  0  0  0
   -5.9234   26.0328   -4.9278 H   0  0  0  0  0  0  0  0  0  0  0  0
   -8.0640   26.6880   -4.2870 H   0  0  0  0  0  0  0  0  0  0  0  0
   -7.0862   23.4271   -3.9468 H   0  0  0  0  0  0  0  0  0  0  0  0
   -6.1391   23.8187   -5.4613 H   0  0  0  0  0  0  0  0  0  0  0  0
   -4.0200   23.2270   -5.3630 H   0  0  0  0  0  0  0  0  0  0  0  0
   -1.3890   26.5866   -6.0737 H   0  0  0  0  0  0  0  0  0  0  0  0
    1.0490   26.8368   -5.6383 H   0  0  0  0  0  0  0  0  0  0  0  0
  1  2  1  0
  2  3  1  0
  3  4  2  0
  4  5  1  0
  5  6  2  0
  6  7  1  0
  7  8  1  0
  8  9  1  0
  9 10  2  0
  9 11  1  0
 11 12  1  0
 11 13  1  0
 13 14  1  0
 13 15  1  0
 15 16  1  0
 16 17  1  6
 16 18  1  0
 18 19  2  0
 18 20  1  0
  6 21  1  0
 21 22  2  0
 22  3  1  0
 16  8  1  0
  1 23  1  0
  1 24  1  0
  1 25  1  0
  4 26  1  0
  5 27  1  0
  7 28  1  0
  7 29  1  0
  8 30  1  1
 11 31  1  1
 12 32  1  0
 13 33  1  6
 14 34  1  0
 15 35  1  0
 15 36  1  0
 17 37  1  0
 21 38  1  0
 22 39  1  0
M  CHG  1  20  -1
M  END
>  <meeko>  (6) 
{"is_sidechain": [false], "free_energy": -5.206, "intermolecular_energy": -6.838, "internal_energy": -0.723}

$$$$
2xb8_ligand
     RDKit          3D

 39 40  0  0  0  0  0  0  0  0999 V2000
   -2.1470   23.7860   -2.4560 C   0  0  0  0  0  0  0  0  0  0  0  0
   -2.5500   25.0810   -2.8800 O   0  0  0  0  0  0  0  0  0  0  0  0
   -1.6060   25.8320   -3.5290 C   0  0  0  0  0  0  0  0  0  0  0  0
   -1.8170   27.0730   -4.1290 C   0  0  0  0  0  0  0  0  0  0  0  0
   -0.7620   27.7350   -4.7650 C   0  0  0  0  0  0  0  0  0  0  0  0
    0.5150   27.1640   -4.8130 C   0  0  0  0  0  0  0  0  0  0  0  0
    1.6550   27.8960   -5.4850 C   0  0  0  0  0  0  0  0  0  0  0  0
    1.6460   29.4100   -5.1770 C   0  0  1  0  0  0  0  0  0  0  0  0
    2.3810   29.6170   -3.8530 C   0  0  0  0  0  0  0  0  0  0  0  0
    1.8760   29.2820   -2.7730 O   0  0  0  0  0  0  0  0  0  0  0  0
    3.8250   30.1100   -3.8940 C   0  0  1  0  0  0  0  0  0  0  0  0
    4.5630   29.5310   -2.7990 O   0  0  0  0  0  0  0  0  0  0  0  0
    4.4770   29.6510   -5.1930 C   0  0  2  0  0  0  0  0  0  0  0  0
    5.8660   30.0070   -5.2050 O   0  0  0  0  0  0  0  0  0  0  0  0
    3.7830   30.2150   -6.4280 C   0  0  0  0  0  0  0  0  0  0  0  0
    2.2520   30.2590   -6.3110 C   0  0  1  0  0  0  0  0  0  0  0  0
    1.7000   29.8400   -7.5910 O   0  0  0  0  0  0  0  0  0  0  0  0
    1.8120   31.7520   -6.0780 C   0  0  0  0  0  0  0  0  0  0  0  0
    2.7250   32.6150   -6.1360 O   0  0  0  0  0  0  0  0  0  0  0  0
    0.5680   31.8720   -5.8570 O   0  0  0  0  0  0  0  0  0  0  0  0
    0.7260   25.9250   -4.2000 C   0  0  0  0  0  0  0  0  0  0  0  0
   -0.3300   25.2630   -3.5700 C   0  0  0  0  0  0  0  0  0  0  0  0
   -2.1350   23.7473   -1.3567 H   0  0  0  0  0  0  0  0  0  0  0  0
   -2.8546   23.0372   -2.8415 H   0  0  0  0  0  0  0  0  0  0  0  0
   -1.1395   23.5710   -2.8415 H   0  0  0  0  0  0  0  0  0  0  0  0
   -2.8161   27.5325   -4.1020 H   0  0  0  0  0  0  0  0  0  0  0  0
   -0.9377   28.7151   -5.2326 H   0  0  0  0  0  0  0  0  0  0  0  0
    2.6055   27.4694   -5.1321 H   0  0  0  0  0  0  0  0  0  0  0  0
    1.5373   27.7742   -6.5719 H   0  0  0  0  0  0  0  0  0  0  0  0
    0.6054   29.7570   -5.0953 H   0  0  0  0  0  0  0  0  0  0  0  0
    3.8319   31.2077   -3.8234 H   0  0  0  0  0  0  0  0  0  0  0  0
    3.9310   29.5600   -2.0500 H   0  0  0  0  0  0  0  0  0  0  0  0
    4.3749   28.5565   -5.2334 H   0  0  0  0  0  0  0  0  0  0  0  0
    5.9690   30.5650   -6.0020 H   0  0  0  0  0  0  0  0  0  0  0  0
    4.1480   31.2393   -6.5939 H   0  0  0  0  0  0  0  0  0  0  0  0
    4.0218   29.5430   -7.2655 H   0  0  0  0  0  0  0  0  0  0  0  0
    0.8910   30.4100   -7.6650 H   0  0  0  0  0  0  0  0  0  0  0  0
    1.7274   25.4701   -4.2141 H   0  0  0  0  0  0  0  0  0  0  0  0
   -0.1557   24.2834   -3.1011 H   0  0  0  0  0  0  0  0  0  0  0  0
  1  2  1  0
  2  3  1  0
  3  4  2  0
  4  5  1  0
  5  6  2  0
  6  7  1  0
  7  8  1  0
  8  9  1  0
  9 10  2  0
  9 11  1  0
 11 12  1  0
 11 13  1  0
 13 14  1  0
 13 15  1  0
 15 16  1  0
 16 17  1  6
 16 18  1  0
 18 19  2  0
 18 20  1  0
  6 21  1  0
 21 22  2  0
 22  3  1  0
 16  8  1  0
  1 23  1  0
  1 24  1  0
  1 25  1  0
  4 26  1  0
  5 27  1  0
  7 28  1  0
  7 29  1  0
  8 30  1  1
 11 31  1  1
 12 32  1  0
 13 33  1  6
 14 34  1  0
 15 35  1  0
 15 36  1  0
 17 37  1  0
 21 38  1  0
 22 39  1  0
M  CHG  1  20  -1
M  END
>  <meeko>  (7) 
{"is_sidechain": [false], "free_energy": -5.125, "intermolecular_energy": -6.786, "internal_energy": -0.668}

$$$$
2xb8_ligand
     RDKit          3D

 39 40  0  0  0  0  0  0  0  0999 V2000
    2.0550   34.0510  -10.3020 C   0  0  0  0  0  0  0  0  0  0  0  0
    2.9770   34.0370   -9.2210 O   0  0  0  0  0  0  0  0  0  0  0  0
    3.0750   32.8660   -8.5170 C   0  0  0  0  0  0  0  0  0  0  0  0
    4.0500   32.5610   -7.5680 C   0  0  0  0  0  0  0  0  0  0  0  0
    4.0360   31.3210   -6.9200 C   0  0  0  0  0  0  0  0  0  0  0  0
    3.0520   30.3700   -7.2160 C   0  0  0  0  0  0  0  0  0  0  0  0
    3.0330   29.0410   -6.4960 C   0  0  0  0  0  0  0  0  0  0  0  0
    2.6850   29.1860   -4.9980 C   0  0  1  0  0  0  0  0  0  0  0  0
    1.1830   28.9500   -4.8480 C   0  0  0  0  0  0  0  0  0  0  0  0
    0.3540   29.7850   -5.2350 O   0  0  0  0  0  0  0  0  0  0  0  0
    0.7090   27.5890   -4.3440 C   0  0  1  0  0  0  0  0  0  0  0  0
   -0.5470   27.2550   -4.9680 O   0  0  0  0  0  0  0  0  0  0  0  0
    1.7260   26.5250   -4.7400 C   0  0  2  0  0  0  0  0  0  0  0  0
    1.2500   25.2220   -4.3750 O   0  0  0  0  0  0  0  0  0  0  0  0
    3.0990   26.7690   -4.1240 C   0  0  0  0  0  0  0  0  0  0  0  0
    3.5090   28.2490   -4.0950 C   0  0  1  0  0  0  0  0  0  0  0  0
    4.9170   28.3240   -4.4580 O   0  0  0  0  0  0  0  0  0  0  0  0
    3.3790   28.7740   -2.6170 C   0  0  0  0  0  0  0  0  0  0  0  0
    3.5850   30.0030   -2.4450 O   0  0  0  0  0  0  0  0  0  0  0  0
    3.0800   27.8590   -1.7910 O   0  0  0  0  0  0  0  0  0  0  0  0
    2.0690   30.6860   -8.1600 C   0  0  0  0  0  0  0  0  0  0  0  0
    2.0880   31.9220   -8.8090 C   0  0  0  0  0  0  0  0  0  0  0  0
    1.0281   34.0666   -9.9079 H   0  0  0  0  0  0  0  0  0  0  0  0
    2.2252   34.9467  -10.9175 H   0  0  0  0  0  0  0  0  0  0  0  0
    2.1979   33.1506  -10.9175 H   0  0  0  0  0  0  0  0  0  0  0  0
    4.8318   33.2968   -7.3283 H   0  0  0  0  0  0  0  0  0  0  0  0
    4.8067   31.0907   -6.1696 H   0  0  0  0  0  0  0  0  0  0  0  0
    2.2824   28.3926   -6.9716 H   0  0  0  0  0  0  0  0  0  0  0  0
    4.0421   28.6085   -6.5649 H   0  0  0  0  0  0  0  0  0  0  0  0
    2.9486   30.1992   -4.6605 H   0  0  0  0  0  0  0  0  0  0  0  0
    0.5952   27.6300   -3.2507 H   0  0  0  0  0  0  0  0  0  0  0  0
   -1.1930   27.3000   -4.2320 H   0  0  0  0  0  0  0  0  0  0  0  0
    1.8431   26.5848   -5.8321 H   0  0  0  0  0  0  0  0  0  0  0  0
    1.0200   25.3010   -3.4270 H   0  0  0  0  0  0  0  0  0  0  0  0
    3.0881   26.3914   -3.0909 H   0  0  0  0  0  0  0  0  0  0  0  0
    3.8320   26.2449   -4.7549 H   0  0  0  0  0  0  0  0  0  0  0  0
    4.8820   28.2330   -5.4460 H   0  0  0  0  0  0  0  0  0  0  0  0
    1.2779   29.9577   -8.3918 H   0  0  0  0  0  0  0  0  0  0  0  0
    1.3172   32.1548   -9.5585 H   0  0  0  0  0  0  0  0  0  0  0  0
  1  2  1  0
  2  3  1  0
  3  4  2  0
  4  5  1  0
  5  6  2  0
  6  7  1  0
  7  8  1  0
  8  9  1  0
  9 10  2  0
  9 11  1  0
 11 12  1  0
 11 13  1  0
 13 14  1  0
 13 15  1  0
 15 16  1  0
 16 17  1  6
 16 18  1  0
 18 19  2  0
 18 20  1  0
  6 21  1  0
 21 22  2  0
 22  3  1  0
 16  8  1  0
  1 23  1  0
  1 24  1  0
  1 25  1  0
  4 26  1  0
  5 27  1  0
  7 28  1  0
  7 29  1  0
  8 30  1  1
 11 31  1  1
 12 32  1  0
 13 33  1  6
 14 34  1  0
 15 35  1  0
 15 36  1  0
 17 37  1  0
 21 38  1  0
 22 39  1  0
M  CHG  1  20  -1
M  END
>  <meeko>  (8) 
{"is_sidechain": [false], "free_energy": -4.975, "intermolecular_energy": -6.545, "internal_energy": -0.711}

$$$$
2xb8_ligand
     RDKit          3D

 39 40  0  0  0  0  0  0  0  0999 V2000
   -4.4760   24.8530   -2.4350 C   0  0  0  0  0  0  0  0  0  0  0  0
   -3.8610   25.3960   -3.5940 O   0  0  0  0  0  0  0  0  0  0  0  0
   -2.6450   26.0000   -3.4140 C   0  0  0  0  0  0  0  0  0  0  0  0
   -2.4030   27.3730   -3.4250 C   0  0  0  0  0  0  0  0  0  0  0  0
   -1.1060   27.8600   -3.2280 C   0  0  0  0  0  0  0  0  0  0  0  0
   -0.0360   26.9820   -3.0230 C   0  0  0  0  0  0  0  0  0  0  0  0
    1.3580   27.5180   -2.7910 C   0  0  0  0  0  0  0  0  0  0  0  0
    1.7690   28.5710   -3.8440 C   0  0  1  0  0  0  0  0  0  0  0  0
    2.4830   29.7050   -3.1100 C   0  0  0  0  0  0  0  0  0  0  0  0
    1.8640   30.5030   -2.3920 O   0  0  0  0  0  0  0  0  0  0  0  0
    4.0080   29.7510   -3.1530 C   0  0  1  0  0  0  0  0  0  0  0  0
    4.5100   30.2810   -1.9100 O   0  0  0  0  0  0  0  0  0  0  0  0
    4.5500   28.3350   -3.3120 C   0  0  2  0  0  0  0  0  0  0  0  0
    5.9830   28.3400   -3.2440 O   0  0  0  0  0  0  0  0  0  0  0  0
    4.0920   27.6750   -4.6070 C   0  0  0  0  0  0  0  0  0  0  0  0
    2.6330   27.9840   -4.9770 C   0  0  1  0  0  0  0  0  0  0  0  0
    2.0330   26.7530   -5.4700 O   0  0  0  0  0  0  0  0  0  0  0  0
    2.6280   29.0160   -6.1650 C   0  0  0  0  0  0  0  0  0  0  0  0
    3.7380   29.2360   -6.7130 O   0  0  0  0  0  0  0  0  0  0  0  0
    1.4750   29.4890   -6.4030 O   0  0  0  0  0  0  0  0  0  0  0  0
   -0.2850   25.6060   -3.0000 C   0  0  0  0  0  0  0  0  0  0  0  0
   -1.5800   25.1220   -3.2010 C   0  0  0  0  0  0  0  0  0  0  0  0
   -4.0003   25.2730   -1.5365 H   0  0  0  0  0  0  0  0  0  0  0  0
   -5.5465   25.1059   -2.4353 H   0  0  0  0  0  0  0  0  0  0  0  0
   -4.3576   23.7594   -2.4353 H   0  0  0  0  0  0  0  0  0  0  0  0
   -3.2337   28.0752   -3.5889 H   0  0  0  0  0  0  0  0  0  0  0  0
   -0.9256   28.9451   -3.2344 H   0  0  0  0  0  0  0  0  0  0  0  0
    1.3964   27.9819   -1.7944 H   0  0  0  0  0  0  0  0  0  0  0  0
    2.0586   26.6738   -2.8710 H   0  0  0  0  0  0  0  0  0  0  0  0
    0.8680   28.9498   -4.3487 H   0  0  0  0  0  0  0  0  0  0  0  0
    4.3243   30.3843   -3.9950 H   0  0  0  0  0  0  0  0  0  0  0  0
    3.7670   30.8230   -1.5700 H   0  0  0  0  0  0  0  0  0  0  0  0
    4.1420   27.7408   -2.4811 H   0  0  0  0  0  0  0  0  0  0  0  0
    6.2320   29.2760   -3.3860 H   0  0  0  0  0  0  0  0  0  0  0  0
    4.7392   28.0272   -5.4238 H   0  0  0  0  0  0  0  0  0  0  0  0
    4.1611   26.5878   -4.4549 H   0  0  0  0  0  0  0  0  0  0  0  0
    2.3590   26.7240   -6.4070 H   0  0  0  0  0  0  0  0  0  0  0  0
    0.5418   24.9023   -2.8230 H   0  0  0  0  0  0  0  0  0  0  0  0
   -1.7629   24.0373   -3.1914 H   0  0  0  0  0  0  0  0  0  0  0  0
  1  2  1  0
  2  3  1  0
  3  4  2  0
  4  5  1  0
  5  6  2  0
  6  7  1  0
  7  8  1  0
  8  9  1  0
  9 10  2  0
  9 11  1  0
 11 12  1  0
 11 13  1  0
 13 14  1  0
 13 15  1  0
 15 16  1  0
 16 17  1  6
 16 18  1  0
 18 19  2  0
 18 20  1  0
  6 21  1  0
 21 22  2  0
 22  3  1  0
 16  8  1  0
  1 23  1  0
  1 24  1  0
  1 25  1  0
  4 26  1  0
  5 27  1  0
  7 28  1  0
  7 29  1  0
  8 30  1  6
 11 31  1  6
 12 32  1  0
 13 33  1  1
 14 34  1  0
 15 35  1  0
 15 36  1  0
 17 37  1  0
 21 38  1  0
 22 39  1  0
M  CHG  1  20  -1
M  END
>  <meeko>  (9) 
{"is_sidechain": [false], "free_energy": -4.424, "intermolecular_energy": -5.902, "internal_energy": -0.626}

$$$$
