
     RDKit          3D

 27 30  0  0  0  0  0  0  0  0999 V2000
   -3.7090   -0.1590   -0.1180 C   0  0  0  0  0  0  0  0  0  0  0  0
   -3.1060   -1.3170   -0.9190 C   0  0  0  0  0  0  0  0  0  0  0  0
   -2.5820   -0.8380   -2.2340 C   0  0  0  0  0  0  0  0  0  0  0  0
   -3.4390   -0.6800   -3.3190 C   0  0  0  0  0  0  0  0  0  0  0  0
   -2.9920   -0.1780   -4.5470 C   0  0  0  0  0  0  0  0  0  0  0  0
   -3.9300   -0.0500   -5.6440 C   0  0  0  0  0  0  0  0  0  0  0  0
   -4.0890    1.0380   -6.4120 N   0  0  0  0  0  0  0  0  0  0  0  0
   -5.0490    0.7750   -7.3220 N   0  0  0  0  0  0  0  0  0  0  0  0
   -5.4980   -0.4630   -7.1630 C   0  0  0  0  0  0  0  0  0  0  0  0
   -6.5310   -1.1030   -7.9990 C   0  0  0  0  0  0  0  0  0  0  0  0
   -7.3870   -0.3890   -8.5580 O   0  0  0  0  0  0  0  0  0  0  0  0
   -6.5490   -2.3410   -8.1380 O   0  0  0  0  0  0  0  0  0  0  0  0
   -4.8080   -1.0470   -6.0860 C   0  0  0  0  0  0  0  0  0  0  0  0
   -4.9200   -2.4000   -5.5400 C   0  0  0  0  0  0  0  0  0  0  0  0
   -3.7880   -3.2230   -5.5360 C   0  0  0  0  0  0  0  0  0  0  0  0
   -3.8650   -4.5200   -5.0130 C   0  0  0  0  0  0  0  0  0  0  0  0
   -5.0670   -4.9460   -4.4960 C   0  0  0  0  0  0  0  0  0  0  0  0
   -6.1880   -4.1110   -4.4920 C   0  0  0  0  0  0  0  0  0  0  0  0
   -6.1270   -2.8210   -5.0100 C   0  0  0  0  0  0  0  0  0  0  0  0
   -7.2330   -4.7380   -3.9190 O   0  0  0  0  0  0  0  0  0  0  0  0
   -6.7850   -6.0300   -3.5330 C   0  0  0  0  0  0  0  0  0  0  0  0
   -5.3990   -6.1220   -3.9250 O   0  0  0  0  0  0  0  0  0  0  0  0
   -1.6480    0.1870   -4.6880 C   0  0  0  0  0  0  0  0  0  0  0  0
   -1.2240    0.7250   -5.8580 O   0  0  0  0  0  0  0  0  0  0  0  0
   -0.7590    0.0210   -3.6320 C   0  0  0  0  0  0  0  0  0  0  0  0
   -1.2110   -0.5040   -2.4060 C   0  0  0  0  0  0  0  0  0  0  0  0
   -0.3540   -0.7230   -1.3810 O   0  0  0  0  0  0  0  0  0  0  0  0
  2  1  1  0
  3  2  1  0
  4  3  2  0
  5  4  1  0
  6  5  1  0
  7  6  2  0
  8  7  1  0
  9  8  1  0
 10  9  1  0
 11 10  2  0
 12 10  1  0
 13  9  2  0
 13  6  1  0
 14 13  1  0
 15 14  2  0
 16 15  1  0
 17 16  2  0
 18 17  1  0
 19 18  2  0
 19 14  1  0
 20 18  1  0
 21 20  1  0
 22 21  1  0
 22 17  1  0
 23  5  2  0
 24 23  1  0
 25 23  1  0
 26 25  2  0
 26  3  1  0
 27 26  1  0
M  CHG  1  12  -1
M  END
$$$$
