
     RDKit          3D

 22 24  0  0  0  0  0  0  0  0999 V2000
    9.7220    1.2960   -7.6380 C   0  0  0  0  0  0  0  0  0  0  0  0
   10.0030    0.4390   -6.5150 N   0  0  0  0  0  0  0  0  0  0  0  0
   10.0070   -0.9070   -6.6310 C   0  0  0  0  0  0  0  0  0  0  0  0
   10.3190   -1.7240   -5.6380 N   0  0  0  0  0  0  0  0  0  0  0  0
   10.2660   -3.0320   -5.9680 C   0  0  0  0  0  0  0  0  0  0  0  0
   10.5960   -4.1050   -4.9280 C   0  0  0  0  0  0  0  0  0  0  0  0
    9.8890   -3.2590   -7.3060 C   0  0  0  0  0  0  0  0  0  0  0  0
    9.7140   -4.5050   -8.0550 C   0  0  0  0  0  0  0  0  0  0  0  0
    9.8270   -5.7860   -7.5100 C   0  0  0  0  0  0  0  0  0  0  0  0
    9.6270   -6.8640   -8.3490 C   0  0  0  0  0  0  0  0  0  0  0  0
    9.3280   -6.7020   -9.6520 N   0  0  0  0  0  0  0  0  0  0  0  0
    9.2150   -5.4490  -10.1260 C   0  0  0  0  0  0  0  0  0  0  0  0
    8.9040   -5.2870  -11.4350 N   0  0  0  0  0  0  0  0  0  0  0  0
    8.5910   -4.1670  -12.1710 C   0  0  0  0  0  0  0  0  0  0  0  0
    8.2220   -2.9290  -11.6150 C   0  0  0  0  0  0  0  0  0  0  0  0
    7.9020   -1.8530  -12.4140 C   0  0  0  0  0  0  0  0  0  0  0  0
    7.9450   -2.0100  -13.7970 C   0  0  0  0  0  0  0  0  0  0  0  0
    7.6450   -0.9630  -14.5960 O   0  0  0  0  0  0  0  0  0  0  0  0
    8.3080   -3.2350  -14.3720 C   0  0  0  0  0  0  0  0  0  0  0  0
    8.6190   -4.2900  -13.5460 C   0  0  0  0  0  0  0  0  0  0  0  0
    9.4020   -4.3500   -9.3640 N   0  0  0  0  0  0  0  0  0  0  0  0
    9.6150   -1.7350   -8.0840 S   0  0  0  0  0  0  0  0  0  0  0  0
  2  1  1  0
  3  2  1  0
  4  3  2  0
  5  4  1  0
  6  5  1  0
  7  5  2  0
  8  7  1  0
  9  8  2  0
 10  9  1  0
 11 10  2  0
 12 11  1  0
 13 12  1  0
 14 13  1  0
 15 14  2  0
 16 15  1  0
 17 16  2  0
 18 17  1  0
 19 17  1  0
 20 19  2  0
 20 14  1  0
 21 12  2  0
 21  8  1  0
 22  7  1  0
 22  3  1  0
M  END
$$$$
