
     RDKit          3D

 28 31  0  0  0  0  0  0  0  0999 V2000
   24.8000  -10.9510   -0.0930 N   0  0  0  0  0  0  0  0  0  0  0  0
   25.5950   -9.8340    0.7120 S   0  0  2  0  0  0  0  0  0  0  0  0
   26.9960   -9.8720    0.3480 O   0  0  0  0  0  0  0  0  0  0  0  0
   25.3730   -9.9940    2.1520 O   0  0  0  0  0  0  0  0  0  0  0  0
   24.9660   -8.2740    0.2590 C   0  0  0  0  0  0  0  0  0  0  0  0
   23.6100   -8.0170    0.3820 C   0  0  0  0  0  0  0  0  0  0  0  0
   23.1200   -6.7580    0.0550 C   0  0  0  0  0  0  0  0  0  0  0  0
   23.9880   -5.7660   -0.3950 C   0  0  0  0  0  0  0  0  0  0  0  0
   23.5470   -4.4830   -0.6660 N   0  0  0  0  0  0  0  0  0  0  0  0
   22.3320   -4.1130   -1.1400 C   0  0  0  0  0  0  0  0  0  0  0  0
   21.5270   -5.0780   -1.6400 N   0  0  0  0  0  0  0  0  0  0  0  0
   20.3080   -4.7730   -2.0730 C   0  0  0  0  0  0  0  0  0  0  0  0
   19.4900   -5.7140   -2.5710 O   0  0  0  0  0  0  0  0  0  0  0  0
   19.9110   -7.0720   -2.5690 C   0  0  0  0  0  0  0  0  0  0  0  0
   18.6610   -7.9370   -2.5280 C   0  0  2  0  0  0  0  0  0  0  0  0
   17.9280   -7.7600   -1.2000 C   0  0  0  0  0  0  0  0  0  0  0  0
   16.6570   -8.5720   -1.1740 C   0  0  0  0  0  0  0  0  0  0  0  0
   16.9300  -10.0420   -1.4400 C   0  0  0  0  0  0  0  0  0  0  0  0
   17.6930  -10.2390   -2.7240 C   0  0  0  0  0  0  0  0  0  0  0  0
   18.9670   -9.4070   -2.7470 C   0  0  0  0  0  0  0  0  0  0  0  0
   19.8520   -3.4590   -2.0220 C   0  0  0  0  0  0  0  0  0  0  0  0
   18.6870   -2.8500   -2.3540 N   0  0  0  0  0  0  0  0  0  0  0  0
   18.8600   -1.5680   -2.0700 C   0  0  0  0  0  0  0  0  0  0  0  0
   20.0960   -1.3320   -1.5600 N   0  0  0  0  0  0  0  0  0  0  0  0
   20.7350   -2.5040   -1.5170 C   0  0  0  0  0  0  0  0  0  0  0  0
   21.9790   -2.8050   -1.0820 N   0  0  0  0  0  0  0  0  0  0  0  0
   25.3190   -6.0250   -0.5210 C   0  0  0  0  0  0  0  0  0  0  0  0
   25.8160   -7.2800   -0.2030 C   0  0  0  0  0  0  0  0  0  0  0  0
  2  1  1  6
  3  2  2  0
  4  2  2  0
  5  2  1  0
  6  5  2  0
  7  6  1  0
  8  7  2  0
  9  8  1  0
 10  9  1  0
 11 10  2  0
 12 11  1  0
 13 12  1  0
 14 13  1  0
 15 14  1  1
 16 15  1  0
 17 16  1  0
 18 17  1  0
 19 18  1  0
 20 19  1  0
 20 15  1  0
 21 12  2  0
 22 21  1  0
 23 22  2  0
 24 23  1  0
 25 24  1  0
 25 21  1  0
 26 25  2  0
 26 10  1  0
 27  8  1  0
 28 27  2  0
 28  5  1  0
M  END
$$$$
