3fv1_ligand
     RDKit          3D

 41 42  0  0  0  0  0  0  0  0999 V2000
   -8.9330   -1.5080   -6.7530 C   0  0  0  0  0  0  0  0  0  0  0  0
   -8.9810   -1.1170   -8.1580 N   0  0  0  0  0  0  0  0  0  0  0  0
  -10.2190   -0.4840   -8.7320 C   0  0  1  0  0  0  0  0  0  0  0  0
   -9.8330    0.7660   -9.5290 C   0  0  1  0  0  0  0  0  0  0  0  0
   -8.5470    1.1920   -9.0820 O   0  0  0  0  0  0  0  0  0  0  0  0
   -7.6290    1.2630  -10.1970 C   0  0  1  0  0  0  0  0  0  0  0  0
   -6.6710    2.4180   -9.8450 C   0  0  0  0  0  0  0  0  0  0  0  0
   -6.7160    3.6140  -10.8360 C   0  0  2  0  0  0  0  0  0  0  0  0
   -5.3440    3.8660  -11.4200 N   0  0  0  0  0  0  0  0  0  0  0  0
   -7.2870    4.9310  -10.1930 C   0  0  0  0  0  0  0  0  0  0  0  0
   -8.5640    4.9210  -10.1190 O   0  0  0  0  0  0  0  0  0  0  0  0
   -6.4520    5.7820   -9.8020 O   0  0  0  0  0  0  0  0  0  0  0  0
   -6.8030   -0.0680  -10.3850 C   0  0  0  0  0  0  0  0  0  0  0  0
   -6.4710   -0.6900   -9.3350 O   0  0  0  0  0  0  0  0  0  0  0  0
   -6.4020   -0.2840  -11.5720 O   0  0  0  0  0  0  0  0  0  0  0  0
   -8.5380    1.4630  -11.4040 C   0  0  0  0  0  0  0  0  0  0  0  0
   -9.7660    0.6190  -11.0470 C   0  0  1  0  0  0  0  0  0  0  0  0
   -9.5590   -0.7070  -11.5120 O   0  0  0  0  0  0  0  0  0  0  0  0
  -10.3380   -1.7430  -10.9330 C   0  0  0  0  0  0  0  0  0  0  0  0
  -11.0570   -1.4010   -9.6270 C   0  0  1  0  0  0  0  0  0  0  0  0
  -11.4910   -2.5740   -8.9310 O   0  0  0  0  0  0  0  0  0  0  0  0
   -9.0426   -0.6151   -6.1200 H   0  0  0  0  0  0  0  0  0  0  0  0
   -9.7516   -2.2113   -6.5399 H   0  0  0  0  0  0  0  0  0  0  0  0
   -7.9686   -1.9924   -6.5399 H   0  0  0  0  0  0  0  0  0  0  0  0
   -8.1710   -0.4780   -8.3570 H   0  0  0  0  0  0  0  0  0  0  0  0
   -8.6750   -1.9150   -8.7800 H   0  0  0  0  0  0  0  0  0  0  0  0
  -10.8511   -0.2399   -7.8655 H   0  0  0  0  0  0  0  0  0  0  0  0
  -10.6446    1.4843   -9.3408 H   0  0  0  0  0  0  0  0  0  0  0  0
   -6.9344    2.7905   -8.8441 H   0  0  0  0  0  0  0  0  0  0  0  0
   -5.6519    2.0069   -9.8952 H   0  0  0  0  0  0  0  0  0  0  0  0
   -7.4125    3.3294  -11.6384 H   0  0  0  0  0  0  0  0  0  0  0  0
   -5.1800    3.4740  -12.3420 H   0  0  0  0  0  0  0  0  0  0  0  0
   -5.3010    4.9030  -11.4900 H   0  0  0  0  0  0  0  0  0  0  0  0
   -4.5630    3.6360  -10.7550 H   0  0  0  0  0  0  0  0  0  0  0  0
   -8.8072    2.5225  -11.5261 H   0  0  0  0  0  0  0  0  0  0  0  0
   -8.0697    1.1703  -12.3553 H   0  0  0  0  0  0  0  0  0  0  0  0
  -10.7193    0.9213  -11.5050 H   0  0  0  0  0  0  0  0  0  0  0  0
  -11.1009   -2.0393  -11.6679 H   0  0  0  0  0  0  0  0  0  0  0  0
   -9.6231   -2.5382  -10.6747 H   0  0  0  0  0  0  0  0  0  0  0  0
  -11.9615   -0.8385   -9.9018 H   0  0  0  0  0  0  0  0  0  0  0  0
  -12.0590   -3.0880   -9.5330 H   0  0  0  0  0  0  0  0  0  0  0  0
  1  2  1  0
  2  3  1  0
  3  4  1  0
  4  5  1  0
  5  6  1  0
  6  7  1  1
  7  8  1  0
  8  9  1  0
  8 10  1  0
 10 11  2  0
 10 12  1  0
  6 13  1  0
 13 14  2  0
 13 15  1  0
  6 16  1  0
 16 17  1  0
 17 18  1  0
 18 19  1  0
 19 20  1  0
 20 21  1  0
 20  3  1  0
 17  4  1  0
  1 22  1  0
  1 23  1  0
  1 24  1  0
  2 25  1  0
  2 26  1  0
  3 27  1  1
  4 28  1  6
  7 29  1  0
  7 30  1  0
  8 31  1  6
  9 32  1  0
  9 33  1  0
  9 34  1  0
 16 35  1  0
 16 36  1  0
 17 37  1  6
 19 38  1  0
 19 39  1  0
 20 40  1  6
 21 41  1  0
M  CHG  4   2   1   9   1  12  -1  15  -1
M  END
>  <meeko>  (1) 
{"is_sidechain": [false], "free_energy": -5.225, "intermolecular_energy": -7.058, "internal_energy": -0.926}

$$$$
3fv1_ligand
     RDKit          3D

 41 42  0  0  0  0  0  0  0  0999 V2000
  -10.7350    2.7700  -11.6060 C   0  0  0  0  0  0  0  0  0  0  0  0
   -9.4050    2.3720  -11.1570 N   0  0  0  0  0  0  0  0  0  0  0  0
   -8.6480    3.2200  -10.1710 C   0  0  1  0  0  0  0  0  0  0  0  0
   -7.8960    2.3150   -9.1890 C   0  0  1  0  0  0  0  0  0  0  0  0
   -8.5180    1.0310   -9.2110 O   0  0  0  0  0  0  0  0  0  0  0  0
   -7.5470    0.0110   -9.5390 C   0  0  1  0  0  0  0  0  0  0  0  0
   -8.0160   -1.2400   -8.7710 C   0  0  0  0  0  0  0  0  0  0  0  0
   -9.3180   -1.0380   -7.9470 C   0  0  2  0  0  0  0  0  0  0  0  0
   -9.2200   -1.7570   -6.6210 N   0  0  0  0  0  0  0  0  0  0  0  0
  -10.6140   -1.4840   -8.7170 C   0  0  0  0  0  0  0  0  0  0  0  0
  -11.6840   -1.0780   -8.1450 O   0  0  0  0  0  0  0  0  0  0  0  0
  -10.4500   -2.1210   -9.7850 O   0  0  0  0  0  0  0  0  0  0  0  0
   -7.5010   -0.3050  -11.0840 C   0  0  0  0  0  0  0  0  0  0  0  0
   -8.6090   -0.3490  -11.6930 O   0  0  0  0  0  0  0  0  0  0  0  0
   -6.3620   -0.6610  -11.5220 O   0  0  0  0  0  0  0  0  0  0  0  0
   -6.2180    0.6250   -9.1140 C   0  0  0  0  0  0  0  0  0  0  0  0
   -6.4060    2.1080   -9.4500 C   0  0  1  0  0  0  0  0  0  0  0  0
   -5.9960    2.3270  -10.7920 O   0  0  0  0  0  0  0  0  0  0  0  0
   -6.4730    3.4910  -11.4510 C   0  0  0  0  0  0  0  0  0  0  0  0
   -7.6560    4.2050  -10.7940 C   0  0  1  0  0  0  0  0  0  0  0  0
   -8.3000    5.1130  -11.6930 O   0  0  0  0  0  0  0  0  0  0  0  0
  -11.3750    2.9615  -10.7321 H   0  0  0  0  0  0  0  0  0  0  0  0
  -10.6589    3.6847  -12.2122 H   0  0  0  0  0  0  0  0  0  0  0  0
  -11.1738    1.9638  -12.2122 H   0  0  0  0  0  0  0  0  0  0  0  0
   -9.4580    1.3970  -10.7700 H   0  0  0  0  0  0  0  0  0  0  0  0
   -8.7810    2.1530  -11.9820 H   0  0  0  0  0  0  0  0  0  0  0  0
   -9.4099    3.8318   -9.6658 H   0  0  0  0  0  0  0  0  0  0  0  0
   -7.9537    2.8354   -8.2216 H   0  0  0  0  0  0  0  0  0  0  0  0
   -8.1917   -2.0451   -9.4997 H   0  0  0  0  0  0  0  0  0  0  0  0
   -7.2220   -1.4804   -8.0487 H   0  0  0  0  0  0  0  0  0  0  0  0
   -9.4132    0.0440   -7.7733 H   0  0  0  0  0  0  0  0  0  0  0  0
   -8.7140   -2.6380   -6.6350 H   0  0  0  0  0  0  0  0  0  0  0  0
   -8.6960   -1.0860   -6.0230 H   0  0  0  0  0  0  0  0  0  0  0  0
  -10.1450   -1.8480   -6.1300 H   0  0  0  0  0  0  0  0  0  0  0  0
   -6.0417    0.4819   -8.0377 H   0  0  0  0  0  0  0  0  0  0  0  0
   -5.3493    0.1720   -9.6142 H   0  0  0  0  0  0  0  0  0  0  0  0
   -5.8102    2.8237   -8.8646 H   0  0  0  0  0  0  0  0  0  0  0  0
   -5.6403    4.2073  -11.5107 H   0  0  0  0  0  0  0  0  0  0  0  0
   -6.8446    3.1443  -12.4266 H   0  0  0  0  0  0  0  0  0  0  0  0
   -7.2446    4.8071   -9.9704 H   0  0  0  0  0  0  0  0  0  0  0  0
   -7.6070    5.5980  -12.1780 H   0  0  0  0  0  0  0  0  0  0  0  0
  1  2  1  0
  2  3  1  0
  3  4  1  0
  4  5  1  0
  5  6  1  0
  6  7  1  1
  7  8  1  0
  8  9  1  0
  8 10  1  0
 10 11  2  0
 10 12  1  0
  6 13  1  0
 13 14  2  0
 13 15  1  0
  6 16  1  0
 16 17  1  0
 17 18  1  0
 18 19  1  0
 19 20  1  0
 20 21  1  0
 20  3  1  0
 17  4  1  0
  1 22  1  0
  1 23  1  0
  1 24  1  0
  2 25  1  0
  2 26  1  0
  3 27  1  1
  4 28  1  1
  7 29  1  0
  7 30  1  0
  8 31  1  1
  9 32  1  0
  9 33  1  0
  9 34  1  0
 16 35  1  0
 16 36  1  0
 17 37  1  1
 19 38  1  0
 19 39  1  0
 20 40  1  1
 21 41  1  0
M  CHG  4   2   1   9   1  12  -1  15  -1
M  END
>  <meeko>  (2) 
{"is_sidechain": [false], "free_energy": -4.694, "intermolecular_energy": -6.438, "internal_energy": -0.828}

$$$$
3fv1_ligand
     RDKit          3D

 41 42  0  0  0  0  0  0  0  0999 V2000
   -9.2310    4.2760  -10.7430 C   0  0  0  0  0  0  0  0  0  0  0  0
   -8.5150    3.0070  -10.6560 N   0  0  0  0  0  0  0  0  0  0  0  0
   -7.2150    2.9150   -9.9050 C   0  0  1  0  0  0  0  0  0  0  0  0
   -7.1660    1.5970   -9.1260 C   0  0  1  0  0  0  0  0  0  0  0  0
   -8.5050    1.1290   -8.9700 O   0  0  0  0  0  0  0  0  0  0  0  0
   -8.6340   -0.2050   -9.5110 C   0  0  1  0  0  0  0  0  0  0  0  0
   -9.6980   -0.8860   -8.6290 C   0  0  0  0  0  0  0  0  0  0  0  0
  -10.8230    0.0630   -8.1300 C   0  0  2  0  0  0  0  0  0  0  0  0
  -11.2080   -0.2780   -6.7090 N   0  0  0  0  0  0  0  0  0  0  0  0
  -12.0930    0.0590   -9.0570 C   0  0  0  0  0  0  0  0  0  0  0  0
  -12.3720   -1.1110   -9.4950 O   0  0  0  0  0  0  0  0  0  0  0  0
  -12.6870    1.1520   -9.2140 O   0  0  0  0  0  0  0  0  0  0  0  0
   -9.1170   -0.2040  -11.0130 C   0  0  0  0  0  0  0  0  0  0  0  0
   -9.8300    0.7730  -11.3850 O   0  0  0  0  0  0  0  0  0  0  0  0
   -8.8860   -1.2800  -11.6490 O   0  0  0  0  0  0  0  0  0  0  0  0
   -7.2180   -0.7640   -9.4420 C   0  0  0  0  0  0  0  0  0  0  0  0
   -6.3530    0.4630   -9.7470 C   0  0  1  0  0  0  0  0  0  0  0  0
   -6.1710    0.5550  -11.1520 O   0  0  0  0  0  0  0  0  0  0  0  0
   -5.7890    1.8120  -11.6920 C   0  0  0  0  0  0  0  0  0  0  0  0
   -5.9580    3.0230  -10.7730 C   0  0  1  0  0  0  0  0  0  0  0  0
   -5.9160    4.2560  -11.4990 O   0  0  0  0  0  0  0  0  0  0  0  0
   -9.4412    4.6486   -9.7296 H   0  0  0  0  0  0  0  0  0  0  0  0
   -8.6134    5.0092  -11.2825 H   0  0  0  0  0  0  0  0  0  0  0  0
  -10.1779    4.1265  -11.2825 H   0  0  0  0  0  0  0  0  0  0  0  0
   -9.1640    2.2800  -10.2660 H   0  0  0  0  0  0  0  0  0  0  0  0
   -8.3970    2.5780  -11.6150 H   0  0  0  0  0  0  0  0  0  0  0  0
   -7.2013    3.7886   -9.2367 H   0  0  0  0  0  0  0  0  0  0  0  0
   -6.6539    1.8425   -8.1839 H   0  0  0  0  0  0  0  0  0  0  0  0
  -10.1634   -1.6935   -9.2133 H   0  0  0  0  0  0  0  0  0  0  0  0
   -9.1752   -1.2509   -7.7326 H   0  0  0  0  0  0  0  0  0  0  0  0
  -10.4115    1.0825   -8.1660 H   0  0  0  0  0  0  0  0  0  0  0  0
  -10.4430   -0.3110   -6.0420 H   0  0  0  0  0  0  0  0  0  0  0  0
  -11.8450    0.5010   -6.4410 H   0  0  0  0  0  0  0  0  0  0  0  0
  -11.8230   -1.1280   -6.6390 H   0  0  0  0  0  0  0  0  0  0  0  0
   -6.9986   -1.1645   -8.4413 H   0  0  0  0  0  0  0  0  0  0  0  0
   -7.0461   -1.6009  -10.1349 H   0  0  0  0  0  0  0  0  0  0  0  0
   -5.3304    0.4563   -9.3417 H   0  0  0  0  0  0  0  0  0  0  0  0
   -4.7268    1.7483  -11.9708 H   0  0  0  0  0  0  0  0  0  0  0  0
   -6.4703    1.9877  -12.5376 H   0  0  0  0  0  0  0  0  0  0  0  0
   -5.0968    3.0241  -10.0886 H   0  0  0  0  0  0  0  0  0  0  0  0
   -6.1250    4.9770  -10.8780 H   0  0  0  0  0  0  0  0  0  0  0  0
  1  2  1  0
  2  3  1  0
  3  4  1  0
  4  5  1  0
  5  6  1  0
  6  7  1  1
  7  8  1  0
  8  9  1  0
  8 10  1  0
 10 11  2  0
 10 12  1  0
  6 13  1  0
 13 14  2  0
 13 15  1  0
  6 16  1  0
 16 17  1  0
 17 18  1  0
 18 19  1  0
 19 20  1  0
 20 21  1  0
 20  3  1  0
 17  4  1  0
  1 22  1  0
  1 23  1  0
  1 24  1  0
  2 25  1  0
  2 26  1  0
  3 27  1  1
  4 28  1  1
  7 29  1  0
  7 30  1  0
  8 31  1  1
  9 32  1  0
  9 33  1  0
  9 34  1  0
 16 35  1  0
 16 36  1  0
 17 37  1  1
 19 38  1  0
 19 39  1  0
 20 40  1  1
 21 41  1  0
M  CHG  4   2   1   9   1  12  -1  15  -1
M  END
>  <meeko>  (3) 
{"is_sidechain": [false], "free_energy": -4.388, "intermolecular_energy": -6.048, "internal_energy": -0.805}

$$$$
3fv1_ligand
     RDKit          3D

 41 42  0  0  0  0  0  0  0  0999 V2000
   -8.1200   -7.3480    5.4800 C   0  0  0  0  0  0  0  0  0  0  0  0
   -8.3430   -8.0180    6.7570 N   0  0  0  0  0  0  0  0  0  0  0  0
   -8.4890   -9.5130    6.8180 C   0  0  1  0  0  0  0  0  0  0  0  0
   -7.3280  -10.1090    7.6220 C   0  0  1  0  0  0  0  0  0  0  0  0
   -6.2660   -9.1560    7.6320 O   0  0  0  0  0  0  0  0  0  0  0  0
   -5.8970   -8.8340    8.9920 C   0  0  1  0  0  0  0  0  0  0  0  0
   -4.3850   -8.5450    8.9300 C   0  0  0  0  0  0  0  0  0  0  0  0
   -4.0250   -7.0620    8.6340 C   0  0  2  0  0  0  0  0  0  0  0  0
   -4.2990   -6.7330    7.1840 N   0  0  0  0  0  0  0  0  0  0  0  0
   -2.5420   -6.6970    9.0070 C   0  0  0  0  0  0  0  0  0  0  0  0
   -2.0820   -7.4320    9.9470 O   0  0  0  0  0  0  0  0  0  0  0  0
   -1.9920   -5.7930    8.3330 O   0  0  0  0  0  0  0  0  0  0  0  0
   -6.6550   -7.5640    9.5400 C   0  0  0  0  0  0  0  0  0  0  0  0
   -6.9960   -6.6890    8.6910 O   0  0  0  0  0  0  0  0  0  0  0  0
   -6.6870   -7.4660   10.8070 O   0  0  0  0  0  0  0  0  0  0  0  0
   -6.3340  -10.0590    9.7860 C   0  0  0  0  0  0  0  0  0  0  0  0
   -7.6210  -10.4860    9.0720 C   0  0  1  0  0  0  0  0  0  0  0  0
   -8.7170   -9.8020    9.6600 O   0  0  0  0  0  0  0  0  0  0  0  0
   -9.9170   -9.6990    8.9080 C   0  0  0  0  0  0  0  0  0  0  0  0
   -9.8090  -10.0100    7.4140 C   0  0  1  0  0  0  0  0  0  0  0  0
  -10.9400   -9.5260    6.6830 O   0  0  0  0  0  0  0  0  0  0  0  0
   -7.7774   -6.3185    5.6610 H   0  0  0  0  0  0  0  0  0  0  0  0
   -7.3551   -7.8938    4.9082 H   0  0  0  0  0  0  0  0  0  0  0  0
   -9.0595   -7.3266    4.9082 H   0  0  0  0  0  0  0  0  0  0  0  0
   -7.5770   -7.7410    7.4200 H   0  0  0  0  0  0  0  0  0  0  0  0
   -9.1420   -7.5660    7.2820 H   0  0  0  0  0  0  0  0  0  0  0  0
   -8.4800   -9.8500    5.7709 H   0  0  0  0  0  0  0  0  0  0  0  0
   -7.0881  -11.0560    7.1164 H   0  0  0  0  0  0  0  0  0  0  0  0
   -3.9425   -8.8194    9.8990 H   0  0  0  0  0  0  0  0  0  0  0  0
   -3.9868   -9.1372    8.0929 H   0  0  0  0  0  0  0  0  0  0  0  0
   -4.6702   -6.4488    9.2803 H   0  0  0  0  0  0  0  0  0  0  0  0
   -4.3210   -7.5250    6.5490 H   0  0  0  0  0  0  0  0  0  0  0  0
   -5.2480   -6.3070    7.2110 H   0  0  0  0  0  0  0  0  0  0  0  0
   -3.6950   -5.9550    6.8150 H   0  0  0  0  0  0  0  0  0  0  0  0
   -5.5737  -10.8526    9.7402 H   0  0  0  0  0  0  0  0  0  0  0  0
   -6.4779   -9.8547   10.8572 H   0  0  0  0  0  0  0  0  0  0  0  0
   -7.8949  -11.5488    9.1455 H   0  0  0  0  0  0  0  0  0  0  0  0
  -10.6467  -10.3972    9.3439 H   0  0  0  0  0  0  0  0  0  0  0  0
  -10.2103   -8.6405    8.9670 H   0  0  0  0  0  0  0  0  0  0  0  0
   -9.8104  -11.1057    7.3172 H   0  0  0  0  0  0  0  0  0  0  0  0
  -10.6910   -8.6780    6.2720 H   0  0  0  0  0  0  0  0  0  0  0  0
  1  2  1  0
  2  3  1  0
  3  4  1  0
  4  5  1  0
  5  6  1  0
  6  7  1  6
  7  8  1  0
  8  9  1  0
  8 10  1  0
 10 11  2  0
 10 12  1  0
  6 13  1  0
 13 14  2  0
 13 15  1  0
  6 16  1  0
 16 17  1  0
 17 18  1  0
 18 19  1  0
 19 20  1  0
 20 21  1  0
 20  3  1  0
 17  4  1  0
  1 22  1  0
  1 23  1  0
  1 24  1  0
  2 25  1  0
  2 26  1  0
  3 27  1  6
  4 28  1  6
  7 29  1  0
  7 30  1  0
  8 31  1  1
  9 32  1  0
  9 33  1  0
  9 34  1  0
 16 35  1  0
 16 36  1  0
 17 37  1  6
 19 38  1  0
 19 39  1  0
 20 40  1  1
 21 41  1  0
M  CHG  4   2   1   9   1  12  -1  15  -1
M  END
>  <meeko>  (4) 
{"is_sidechain": [false], "free_energy": -3.885, "intermolecular_energy": -5.433, "internal_energy": -0.74}

$$$$
3fv1_ligand
     RDKit          3D

 41 42  0  0  0  0  0  0  0  0999 V2000
  -10.8570   -8.7440   10.6730 C   0  0  0  0  0  0  0  0  0  0  0  0
   -9.8600   -9.3020    9.7650 N   0  0  0  0  0  0  0  0  0  0  0  0
  -10.2810  -10.1630    8.6060 C   0  0  1  0  0  0  0  0  0  0  0  0
   -9.5240   -9.7300    7.3460 C   0  0  1  0  0  0  0  0  0  0  0  0
   -9.0570   -8.3970    7.5500 O   0  0  0  0  0  0  0  0  0  0  0  0
   -7.6230   -8.3370    7.3750 C   0  0  1  0  0  0  0  0  0  0  0  0
   -7.3550   -6.9320    6.8020 C   0  0  0  0  0  0  0  0  0  0  0  0
   -6.0310   -6.8080    5.9990 C   0  0  2  0  0  0  0  0  0  0  0  0
   -4.8570   -6.6480    6.9390 N   0  0  0  0  0  0  0  0  0  0  0  0
   -6.0510   -5.6390    4.9470 C   0  0  0  0  0  0  0  0  0  0  0  0
   -7.2370   -5.2310    4.6970 O   0  0  0  0  0  0  0  0  0  0  0  0
   -4.9410   -5.2310    4.5280 O   0  0  0  0  0  0  0  0  0  0  0  0
   -6.8410   -8.5110    8.7340 C   0  0  0  0  0  0  0  0  0  0  0  0
   -7.3580   -7.9870    9.7630 O   0  0  0  0  0  0  0  0  0  0  0  0
   -5.6770   -9.0080    8.6210 O   0  0  0  0  0  0  0  0  0  0  0  0
   -7.3180   -9.5230    6.4680 C   0  0  0  0  0  0  0  0  0  0  0  0
   -8.3220  -10.5800    6.9410 C   0  0  1  0  0  0  0  0  0  0  0  0
   -7.7340  -11.3270    7.9960 O   0  0  0  0  0  0  0  0  0  0  0  0
   -8.5980  -12.0450    8.8640 C   0  0  0  0  0  0  0  0  0  0  0  0
  -10.0790  -11.6670    8.8110 C   0  0  1  0  0  0  0  0  0  0  0  0
  -10.7970  -12.1500    9.9510 O   0  0  0  0  0  0  0  0  0  0  0  0
  -10.5444   -8.9189   11.7130 H   0  0  0  0  0  0  0  0  0  0  0  0
  -10.9504   -7.6625   10.4952 H   0  0  0  0  0  0  0  0  0  0  0  0
  -11.8277   -9.2300   10.4952 H   0  0  0  0  0  0  0  0  0  0  0  0
   -9.2720   -8.5180    9.3880 H   0  0  0  0  0  0  0  0  0  0  0  0
   -9.0940   -9.7920   10.3060 H   0  0  0  0  0  0  0  0  0  0  0  0
  -11.3659  -10.0108    8.5075 H   0  0  0  0  0  0  0  0  0  0  0  0
  -10.2499   -9.8409    6.5270 H   0  0  0  0  0  0  0  0  0  0  0  0
   -8.1883   -6.6681    6.1342 H   0  0  0  0  0  0  0  0  0  0  0  0
   -7.2643   -6.2539    7.6633 H   0  0  0  0  0  0  0  0  0  0  0  0
   -5.9231   -7.7424    5.4286 H   0  0  0  0  0  0  0  0  0  0  0  0
   -4.2360   -5.8700    6.7400 H   0  0  0  0  0  0  0  0  0  0  0  0
   -5.3110   -6.4800    7.8610 H   0  0  0  0  0  0  0  0  0  0  0  0
   -4.3250   -7.5420    7.0910 H   0  0  0  0  0  0  0  0  0  0  0  0
   -7.4819   -9.2659    5.4111 H   0  0  0  0  0  0  0  0  0  0  0  0
   -6.2722   -9.8587    6.5274 H   0  0  0  0  0  0  0  0  0  0  0  0
   -8.6193  -11.3398    6.2032 H   0  0  0  0  0  0  0  0  0  0  0  0
   -8.5153  -13.1124    8.6114 H   0  0  0  0  0  0  0  0  0  0  0  0
   -8.2671  -11.7922    9.8821 H   0  0  0  0  0  0  0  0  0  0  0  0
  -10.5024  -12.1698    7.9290 H   0  0  0  0  0  0  0  0  0  0  0  0
  -10.8920  -11.4120   10.5800 H   0  0  0  0  0  0  0  0  0  0  0  0
  1  2  1  0
  2  3  1  0
  3  4  1  0
  4  5  1  0
  5  6  1  0
  6  7  1  6
  7  8  1  0
  8  9  1  0
  8 10  1  0
 10 11  2  0
 10 12  1  0
  6 13  1  0
 13 14  2  0
 13 15  1  0
  6 16  1  0
 16 17  1  0
 17 18  1  0
 18 19  1  0
 19 20  1  0
 20 21  1  0
 20  3  1  0
 17  4  1  0
  1 22  1  0
  1 23  1  0
  1 24  1  0
  2 25  1  0
  2 26  1  0
  3 27  1  6
  4 28  1  6
  7 29  1  0
  7 30  1  0
  8 31  1  6
  9 32  1  0
  9 33  1  0
  9 34  1  0
 16 35  1  0
 16 36  1  0
 17 37  1  6
 19 38  1  0
 19 39  1  0
 20 40  1  6
 21 41  1  0
M  CHG  4   2   1   9   1  12  -1  15  -1
M  END
>  <meeko>  (5) 
{"is_sidechain": [false], "free_energy": -3.773, "intermolecular_energy": -5.171, "internal_energy": -0.852}

$$$$
3fv1_ligand
     RDKit          3D

 41 42  0  0  0  0  0  0  0  0999 V2000
   -7.2670   -7.3630    5.8770 C   0  0  0  0  0  0  0  0  0  0  0  0
   -6.8720   -8.1450    7.0440 N   0  0  0  0  0  0  0  0  0  0  0  0
   -6.6190   -7.4700    8.3640 C   0  0  1  0  0  0  0  0  0  0  0  0
   -7.6050   -8.0040    9.4090 C   0  0  1  0  0  0  0  0  0  0  0  0
   -8.7140   -8.5740    8.7160 O   0  0  0  0  0  0  0  0  0  0  0  0
   -8.8970   -9.9520    9.1130 C   0  0  1  0  0  0  0  0  0  0  0  0
  -10.4170  -10.1880    9.0260 C   0  0  0  0  0  0  0  0  0  0  0  0
  -10.9380  -10.5050    7.5970 C   0  0  2  0  0  0  0  0  0  0  0  0
  -10.6080   -9.3710    6.6530 N   0  0  0  0  0  0  0  0  0  0  0  0
  -12.4770  -10.8220    7.5540 C   0  0  0  0  0  0  0  0  0  0  0  0
  -13.1460  -10.0970    8.3690 O   0  0  0  0  0  0  0  0  0  0  0  0
  -12.8580  -11.6830    6.7250 O   0  0  0  0  0  0  0  0  0  0  0  0
   -8.1510  -10.9610    8.1560 C   0  0  0  0  0  0  0  0  0  0  0  0
   -7.8580  -10.5420    6.9990 O   0  0  0  0  0  0  0  0  0  0  0  0
   -8.0810  -12.1540    8.5880 O   0  0  0  0  0  0  0  0  0  0  0  0
   -8.2650  -10.0180   10.4990 C   0  0  0  0  0  0  0  0  0  0  0  0
   -7.0740   -9.0610   10.3750 C   0  0  1  0  0  0  0  0  0  0  0  0
   -5.9500   -9.7910    9.9060 O   0  0  0  0  0  0  0  0  0  0  0  0
   -4.8860   -9.0630    9.3120 C   0  0  0  0  0  0  0  0  0  0  0  0
   -5.1950   -7.6220    8.9050 C   0  0  1  0  0  0  0  0  0  0  0  0
   -4.2210   -7.1010    7.9950 O   0  0  0  0  0  0  0  0  0  0  0  0
   -7.7402   -6.4262    6.2064 H   0  0  0  0  0  0  0  0  0  0  0  0
   -6.3776   -7.1317    5.2724 H   0  0  0  0  0  0  0  0  0  0  0  0
   -7.9810   -7.9416    5.2724 H   0  0  0  0  0  0  0  0  0  0  0  0
   -7.5840   -8.9010    7.2000 H   0  0  0  0  0  0  0  0  0  0  0  0
   -6.0570   -8.7780    6.8120 H   0  0  0  0  0  0  0  0  0  0  0  0
   -6.7612   -6.3957    8.1752 H   0  0  0  0  0  0  0  0  0  0  0  0
   -7.8548   -7.1346   10.0348 H   0  0  0  0  0  0  0  0  0  0  0  0
  -10.6714  -11.0348    9.6804 H   0  0  0  0  0  0  0  0  0  0  0  0
  -10.8981   -9.2478    9.3335 H   0  0  0  0  0  0  0  0  0  0  0  0
  -10.4208  -11.4195    7.2712 H   0  0  0  0  0  0  0  0  0  0  0  0
  -10.5020   -8.4570    7.0830 H   0  0  0  0  0  0  0  0  0  0  0  0
   -9.6910   -9.6540    6.2510 H   0  0  0  0  0  0  0  0  0  0  0  0
  -11.2400   -9.3350    5.8130 H   0  0  0  0  0  0  0  0  0  0  0  0
   -8.9690   -9.6764   11.2721 H   0  0  0  0  0  0  0  0  0  0  0  0
   -7.9761  -11.0364   10.7979 H   0  0  0  0  0  0  0  0  0  0  0  0
   -6.7227   -8.5903   11.3051 H   0  0  0  0  0  0  0  0  0  0  0  0
   -4.0548   -9.0369   10.0321 H   0  0  0  0  0  0  0  0  0  0  0  0
   -4.6580   -9.5901    8.3738 H   0  0  0  0  0  0  0  0  0  0  0  0
   -5.1348   -7.0153    9.8206 H   0  0  0  0  0  0  0  0  0  0  0  0
   -3.4140   -6.8990    8.5030 H   0  0  0  0  0  0  0  0  0  0  0  0
  1  2  1  0
  2  3  1  0
  3  4  1  0
  4  5  1  0
  5  6  1  0
  6  7  1  1
  7  8  1  0
  8  9  1  0
  8 10  1  0
 10 11  2  0
 10 12  1  0
  6 13  1  0
 13 14  2  0
 13 15  1  0
  6 16  1  0
 16 17  1  0
 17 18  1  0
 18 19  1  0
 19 20  1  0
 20 21  1  0
 20  3  1  0
 17  4  1  0
  1 22  1  0
  1 23  1  0
  1 24  1  0
  2 25  1  0
  2 26  1  0
  3 27  1  6
  4 28  1  1
  7 29  1  0
  7 30  1  0
  8 31  1  6
  9 32  1  0
  9 33  1  0
  9 34  1  0
 16 35  1  0
 16 36  1  0
 17 37  1  1
 19 38  1  0
 19 39  1  0
 20 40  1  1
 21 41  1  0
M  CHG  4   2   1   9   1  12  -1  15  -1
M  END
>  <meeko>  (6) 
{"is_sidechain": [false], "free_energy": -3.682, "intermolecular_energy": -5.226, "internal_energy": -0.673}

$$$$
3fv1_ligand
     RDKit          3D

 41 42  0  0  0  0  0  0  0  0999 V2000
   -8.5870  -13.7760    9.2510 C   0  0  0  0  0  0  0  0  0  0  0  0
   -8.8150  -12.3350    9.3010 N   0  0  0  0  0  0  0  0  0  0  0  0
   -9.2430  -11.6750   10.5830 C   0  0  1  0  0  0  0  0  0  0  0  0
   -8.4780  -10.3590   10.7620 C   0  0  1  0  0  0  0  0  0  0  0  0
   -7.3040  -10.4200    9.9530 O   0  0  0  0  0  0  0  0  0  0  0  0
   -7.2710   -9.3030    9.0360 C   0  0  1  0  0  0  0  0  0  0  0  0
   -5.7740   -8.9830    8.8590 C   0  0  0  0  0  0  0  0  0  0  0  0
   -5.4510   -7.4690    8.7280 C   0  0  2  0  0  0  0  0  0  0  0  0
   -5.5420   -7.0340    7.2830 N   0  0  0  0  0  0  0  0  0  0  0  0
   -4.0520   -7.0790    9.3300 C   0  0  0  0  0  0  0  0  0  0  0  0
   -4.1250   -6.7710   10.5700 O   0  0  0  0  0  0  0  0  0  0  0  0
   -3.0610   -7.1570    8.5650 O   0  0  0  0  0  0  0  0  0  0  0  0
   -7.9050   -9.6520    7.6350 C   0  0  0  0  0  0  0  0  0  0  0  0
   -7.7630  -10.8400    7.2220 O   0  0  0  0  0  0  0  0  0  0  0  0
   -8.3410   -8.6530    6.9810 O   0  0  0  0  0  0  0  0  0  0  0  0
   -8.1270   -8.2440    9.7220 C   0  0  0  0  0  0  0  0  0  0  0  0
   -9.2230   -9.0770   10.3960 C   0  0  1  0  0  0  0  0  0  0  0  0
  -10.2940   -9.2480    9.4790 O   0  0  0  0  0  0  0  0  0  0  0  0
  -11.2010  -10.3160    9.7080 C   0  0  0  0  0  0  0  0  0  0  0  0
  -10.7440  -11.3930   10.6940 C   0  0  1  0  0  0  0  0  0  0  0  0
  -11.5210  -12.5890   10.5790 O   0  0  0  0  0  0  0  0  0  0  0  0
   -8.5242  -14.1730   10.2749 H   0  0  0  0  0  0  0  0  0  0  0  0
   -9.4196  -14.2608    8.7202 H   0  0  0  0  0  0  0  0  0  0  0  0
   -7.6454  -13.9800    8.7202 H   0  0  0  0  0  0  0  0  0  0  0  0
   -7.9500  -11.8460    8.9610 H   0  0  0  0  0  0  0  0  0  0  0  0
   -9.4560  -12.0300    8.5180 H   0  0  0  0  0  0  0  0  0  0  0  0
   -9.0075  -12.3986   11.3774 H   0  0  0  0  0  0  0  0  0  0  0  0
   -8.2858  -10.2865   11.8426 H   0  0  0  0  0  0  0  0  0  0  0  0
   -5.2329   -9.3756    9.7325 H   0  0  0  0  0  0  0  0  0  0  0  0
   -5.4628   -9.4526    7.9142 H   0  0  0  0  0  0  0  0  0  0  0  0
   -6.2073   -6.9354    9.3223 H   0  0  0  0  0  0  0  0  0  0  0  0
   -4.6770   -6.7000    6.8690 H   0  0  0  0  0  0  0  0  0  0  0  0
   -5.8280   -7.9040    6.7890 H   0  0  0  0  0  0  0  0  0  0  0  0
   -6.3410   -6.3770    7.0980 H   0  0  0  0  0  0  0  0  0  0  0  0
   -7.5423   -7.6827   10.4657 H   0  0  0  0  0  0  0  0  0  0  0  0
   -8.5206   -7.4862    9.0286 H   0  0  0  0  0  0  0  0  0  0  0  0
   -9.6958   -8.6383   11.2871 H   0  0  0  0  0  0  0  0  0  0  0  0
  -12.1368   -9.8845   10.0928 H   0  0  0  0  0  0  0  0  0  0  0  0
  -11.3019  -10.8282    8.7398 H   0  0  0  0  0  0  0  0  0  0  0  0
  -10.9194  -10.9928   11.7035 H   0  0  0  0  0  0  0  0  0  0  0  0
  -11.0080  -13.3190   10.9730 H   0  0  0  0  0  0  0  0  0  0  0  0
  1  2  1  0
  2  3  1  0
  3  4  1  0
  4  5  1  0
  5  6  1  0
  6  7  1  6
  7  8  1  0
  8  9  1  0
  8 10  1  0
 10 11  2  0
 10 12  1  0
  6 13  1  0
 13 14  2  0
 13 15  1  0
  6 16  1  0
 16 17  1  0
 17 18  1  0
 18 19  1  0
 19 20  1  0
 20 21  1  0
 20  3  1  0
 17  4  1  0
  1 22  1  0
  1 23  1  0
  1 24  1  0
  2 25  1  0
  2 26  1  0
  3 27  1  1
  4 28  1  1
  7 29  1  0
  7 30  1  0
  8 31  1  1
  9 32  1  0
  9 33  1  0
  9 34  1  0
 16 35  1  0
 16 36  1  0
 17 37  1  1
 19 38  1  0
 19 39  1  0
 20 40  1  1
 21 41  1  0
M  CHG  4   2   1   9   1  12  -1  15  -1
M  END
>  <meeko>  (7) 
{"is_sidechain": [false], "free_energy": -3.678, "intermolecular_energy": -4.923, "internal_energy": -0.972}

$$$$
3fv1_ligand
     RDKit          3D

 41 42  0  0  0  0  0  0  0  0999 V2000
  -11.9360   -9.0430   10.1940 C   0  0  0  0  0  0  0  0  0  0  0  0
  -10.5880   -9.3280    9.7100 N   0  0  0  0  0  0  0  0  0  0  0  0
  -10.3170  -10.5600    8.8910 C   0  0  1  0  0  0  0  0  0  0  0  0
   -9.0040  -10.3830    8.1210 C   0  0  1  0  0  0  0  0  0  0  0  0
   -8.7260   -8.9860    8.0400 O   0  0  0  0  0  0  0  0  0  0  0  0
   -7.4230   -8.7030    8.5990 C   0  0  1  0  0  0  0  0  0  0  0  0
   -6.8960   -7.5090    7.7800 C   0  0  0  0  0  0  0  0  0  0  0  0
   -7.4480   -7.4300    6.3290 C   0  0  2  0  0  0  0  0  0  0  0  0
   -7.1300   -8.7020    5.5750 N   0  0  0  0  0  0  0  0  0  0  0  0
   -6.9260   -6.1780    5.5350 C   0  0  0  0  0  0  0  0  0  0  0  0
   -5.6660   -6.0020    5.6770 O   0  0  0  0  0  0  0  0  0  0  0  0
   -7.7650   -5.5510    4.8460 O   0  0  0  0  0  0  0  0  0  0  0  0
   -7.4920   -8.3080   10.1240 C   0  0  0  0  0  0  0  0  0  0  0  0
   -8.5010   -7.6420   10.4990 O   0  0  0  0  0  0  0  0  0  0  0  0
   -6.4330   -8.5470   10.7860 O   0  0  0  0  0  0  0  0  0  0  0  0
   -6.6730  -10.0220    8.4580 C   0  0  0  0  0  0  0  0  0  0  0  0
   -7.7690  -11.0650    8.7060 C   0  0  1  0  0  0  0  0  0  0  0  0
   -7.8350  -11.3330   10.0980 O   0  0  0  0  0  0  0  0  0  0  0  0
   -9.0270  -11.9150   10.6070 C   0  0  0  0  0  0  0  0  0  0  0  0
  -10.2500  -11.8650    9.6890 C   0  0  1  0  0  0  0  0  0  0  0  0
  -11.4650  -12.1160   10.4020 O   0  0  0  0  0  0  0  0  0  0  0  0
  -11.9382   -9.0425   11.2940 H   0  0  0  0  0  0  0  0  0  0  0  0
  -12.2568   -8.0572    9.8263 H   0  0  0  0  0  0  0  0  0  0  0  0
  -12.6284   -9.8146    9.8263 H   0  0  0  0  0  0  0  0  0  0  0  0
  -10.2430   -8.4980    9.1680 H   0  0  0  0  0  0  0  0  0  0  0  0
   -9.8880   -9.2710   10.5000 H   0  0  0  0  0  0  0  0  0  0  0  0
  -11.1801  -10.6586    8.2162 H   0  0  0  0  0  0  0  0  0  0  0  0
   -9.1757  -10.8715    7.1505 H   0  0  0  0  0  0  0  0  0  0  0  0
   -7.1741   -6.5829    8.3045 H   0  0  0  0  0  0  0  0  0  0  0  0
   -5.8077   -7.6440    7.6942 H   0  0  0  0  0  0  0  0  0  0  0  0
   -8.5386   -7.3142    6.4144 H   0  0  0  0  0  0  0  0  0  0  0  0
   -7.6040   -8.8140    4.6840 H   0  0  0  0  0  0  0  0  0  0  0  0
   -6.1080   -8.6250    5.3980 H   0  0  0  0  0  0  0  0  0  0  0  0
   -7.2090   -9.5650    6.1700 H   0  0  0  0  0  0  0  0  0  0  0  0
   -6.2454  -10.1287    7.4501 H   0  0  0  0  0  0  0  0  0  0  0  0
   -5.8208  -10.1139    9.1474 H   0  0  0  0  0  0  0  0  0  0  0  0
   -7.6212  -12.0534    8.2464 H   0  0  0  0  0  0  0  0  0  0  0  0
   -8.8164  -12.9718   10.8279 H   0  0  0  0  0  0  0  0  0  0  0  0
   -9.2955  -11.3125   11.4873 H   0  0  0  0  0  0  0  0  0  0  0  0
  -10.1318  -12.6796    8.9593 H   0  0  0  0  0  0  0  0  0  0  0  0
  -11.5950  -11.3910   11.0400 H   0  0  0  0  0  0  0  0  0  0  0  0
  1  2  1  0
  2  3  1  0
  3  4  1  0
  4  5  1  0
  5  6  1  0
  6  7  1  6
  7  8  1  0
  8  9  1  0
  8 10  1  0
 10 11  2  0
 10 12  1  0
  6 13  1  0
 13 14  2  0
 13 15  1  0
  6 16  1  0
 16 17  1  0
 17 18  1  0
 18 19  1  0
 19 20  1  0
 20 21  1  0
 20  3  1  0
 17  4  1  0
  1 22  1  0
  1 23  1  0
  1 24  1  0
  2 25  1  0
  2 26  1  0
  3 27  1  6
  4 28  1  6
  7 29  1  0
  7 30  1  0
  8 31  1  1
  9 32  1  0
  9 33  1  0
  9 34  1  0
 16 35  1  0
 16 36  1  0
 17 37  1  6
 19 38  1  0
 19 39  1  0
 20 40  1  6
 21 41  1  0
M  CHG  4   2   1   9   1  12  -1  15  -1
M  END
>  <meeko>  (8) 
{"is_sidechain": [false], "free_energy": -3.63, "intermolecular_energy": -5.183, "internal_energy": -0.645}

$$$$
3fv1_ligand
     RDKit          3D

 41 42  0  0  0  0  0  0  0  0999 V2000
   -7.7480  -10.8340    6.2690 C   0  0  0  0  0  0  0  0  0  0  0  0
   -7.8030  -10.0990    7.5280 N   0  0  0  0  0  0  0  0  0  0  0  0
   -7.8300  -10.8350    8.8400 C   0  0  1  0  0  0  0  0  0  0  0  0
   -6.6610  -10.3660    9.7130 C   0  0  1  0  0  0  0  0  0  0  0  0
   -5.6820   -9.7790    8.8590 O   0  0  0  0  0  0  0  0  0  0  0  0
   -5.4000   -8.4240    9.2790 C   0  0  1  0  0  0  0  0  0  0  0  0
   -3.9150   -8.2060    8.9310 C   0  0  0  0  0  0  0  0  0  0  0  0
   -3.5380   -6.7310    8.6200 C   0  0  2  0  0  0  0  0  0  0  0  0
   -3.5100   -6.4980    7.1270 N   0  0  0  0  0  0  0  0  0  0  0  0
   -2.1750   -6.2890    9.2680 C   0  0  0  0  0  0  0  0  0  0  0  0
   -1.8550   -5.0900    8.9570 O   0  0  0  0  0  0  0  0  0  0  0  0
   -1.6080   -7.1170   10.0200 O   0  0  0  0  0  0  0  0  0  0  0  0
   -6.2820   -7.3600    8.5200 C   0  0  0  0  0  0  0  0  0  0  0  0
   -6.8230   -6.4580    9.2220 O   0  0  0  0  0  0  0  0  0  0  0  0
   -6.5040   -7.6250    7.2960 O   0  0  0  0  0  0  0  0  0  0  0  0
   -5.7710   -8.4180   10.7570 C   0  0  0  0  0  0  0  0  0  0  0  0
   -6.9860   -9.3510   10.8070 C   0  0  1  0  0  0  0  0  0  0  0  0
   -8.1590   -8.5830   10.5820 O   0  0  0  0  0  0  0  0  0  0  0  0
   -9.3290   -9.2660   10.1570 C   0  0  0  0  0  0  0  0  0  0  0  0
   -9.1300  -10.6900    9.6350 C   0  0  1  0  0  0  0  0  0  0  0  0
  -10.2630  -11.1520    8.8920 O   0  0  0  0  0  0  0  0  0  0  0  0
   -7.6674  -11.9112    6.4765 H   0  0  0  0  0  0  0  0  0  0  0  0
   -8.6632  -10.6395    5.6906 H   0  0  0  0  0  0  0  0  0  0  0  0
   -6.8719  -10.5055    5.6906 H   0  0  0  0  0  0  0  0  0  0  0  0
   -7.0030   -9.4200    7.5560 H   0  0  0  0  0  0  0  0  0  0  0  0
   -8.5820   -9.3850    7.5110 H   0  0  0  0  0  0  0  0  0  0  0  0
   -7.7479  -11.9007    8.5801 H   0  0  0  0  0  0  0  0  0  0  0  0
   -6.3226  -11.2685   10.2431 H   0  0  0  0  0  0  0  0  0  0  0  0
   -3.3086   -8.5434    9.7845 H   0  0  0  0  0  0  0  0  0  0  0  0
   -3.7204   -8.7798    8.0129 H   0  0  0  0  0  0  0  0  0  0  0  0
   -4.3194   -6.1060    9.0768 H   0  0  0  0  0  0  0  0  0  0  0  0
   -4.1520   -5.7910    6.7800 H   0  0  0  0  0  0  0  0  0  0  0  0
   -2.5370   -6.1720    6.9530 H   0  0  0  0  0  0  0  0  0  0  0  0
   -3.5710   -7.3860    6.5680 H   0  0  0  0  0  0  0  0  0  0  0  0
   -4.9473   -8.8070   11.3737 H   0  0  0  0  0  0  0  0  0  0  0  0
   -5.9788   -7.4116   11.1493 H   0  0  0  0  0  0  0  0  0  0  0  0
   -7.1750   -9.8618   11.7627 H   0  0  0  0  0  0  0  0  0  0  0  0
  -10.0177   -9.3160   11.0133 H   0  0  0  0  0  0  0  0  0  0  0  0
   -9.7103   -8.6902    9.3008 H   0  0  0  0  0  0  0  0  0  0  0  0
   -9.0385  -11.3401   10.5176 H   0  0  0  0  0  0  0  0  0  0  0  0
  -11.0610  -10.9840    9.4260 H   0  0  0  0  0  0  0  0  0  0  0  0
  1  2  1  0
  2  3  1  0
  3  4  1  0
  4  5  1  0
  5  6  1  0
  6  7  1  1
  7  8  1  0
  8  9  1  0
  8 10  1  0
 10 11  2  0
 10 12  1  0
  6 13  1  0
 13 14  2  0
 13 15  1  0
  6 16  1  0
 16 17  1  0
 17 18  1  0
 18 19  1  0
 19 20  1  0
 20 21  1  0
 20  3  1  0
 17  4  1  0
  1 22  1  0
  1 23  1  0
  1 24  1  0
  2 25  1  0
  2 26  1  0
  3 27  1  6
  4 28  1  1
  7 29  1  0
  7 30  1  0
  8 31  1  1
  9 32  1  0
  9 33  1  0
  9 34  1  0
 16 35  1  0
 16 36  1  0
 17 37  1  1
 19 38  1  0
 19 39  1  0
 20 40  1  1
 21 41  1  0
M  CHG  4   2   1   9   1  12  -1  15  -1
M  END
>  <meeko>  (9) 
{"is_sidechain": [false], "free_energy": -3.314, "intermolecular_energy": -4.959, "internal_energy": -0.444}

$$$$
