
     RDKit          3D

 11 11  0  0  0  0  0  0  0  0999 V2000
  -10.5950    4.1600   -2.3920 N   0  0  0  0  0  0  0  0  0  0  0  0
  -10.2180    3.1580   -1.3930 C   0  0  0  0  0  0  0  0  0  0  0  0
   -9.8060    1.8260   -1.9630 C   0  0  0  0  0  0  0  0  0  0  0  0
   -8.5190    1.3420   -1.7270 C   0  0  0  0  0  0  0  0  0  0  0  0
   -8.1250    0.1050   -2.2410 C   0  0  0  0  0  0  0  0  0  0  0  0
   -9.0170   -0.6590   -2.9840 C   0  0  0  0  0  0  0  0  0  0  0  0
   -8.6140   -1.9880   -3.5100 C   0  0  0  0  0  0  0  0  0  0  0  0
   -7.4070   -2.2620   -3.7050 O   0  0  0  0  0  0  0  0  0  0  0  0
   -9.4940   -2.8410   -3.7560 O   0  0  0  0  0  0  0  0  0  0  0  0
  -10.2990   -0.1580   -3.2240 C   0  0  0  0  0  0  0  0  0  0  0  0
  -10.6870    1.0710   -2.7170 C   0  0  0  0  0  0  0  0  0  0  0  0
  2  1  1  0
  3  2  1  0
  4  3  2  0
  5  4  1  0
  6  5  2  0
  7  6  1  0
  8  7  2  0
  9  7  1  0
 10  6  1  0
 11 10  2  0
 11  3  1  0
M  CHG  2   1   1   9  -1
M  END
$$$$
