
     RDKit          3D

 26 28  0  0  0  0  0  0  0  0999 V2000
    5.4990  -15.8960   -2.5860 C   0  0  0  0  0  0  0  0  0  0  0  0
    4.8480  -14.9590   -1.7520 O   0  0  0  0  0  0  0  0  0  0  0  0
    5.4800  -14.7230   -0.5500 C   0  0  0  0  0  0  0  0  0  0  0  0
    4.4510  -14.1640    0.3670 C   0  0  0  0  0  0  0  0  0  0  0  0
    3.9060  -12.9830   -0.2290 N   0  0  0  0  0  0  0  0  0  0  0  0
    2.5950  -12.8180   -0.3930 C   0  0  0  0  0  0  0  0  0  0  0  0
    1.8210  -13.6730   -0.0680 O   0  0  0  0  0  0  0  0  0  0  0  0
    2.1360  -11.5080   -0.9700 C   0  0  0  0  0  0  0  0  0  0  0  0
    2.9620  -10.7270   -1.7470 C   0  0  0  0  0  0  0  0  0  0  0  0
    2.5010   -9.5120   -2.2790 C   0  0  0  0  0  0  0  0  0  0  0  0
    1.2000   -9.0790   -2.0310 C   0  0  0  0  0  0  0  0  0  0  0  0
    0.7510   -7.7980   -2.6330 C   0  0  0  0  0  0  0  0  0  0  0  0
    0.7160   -7.6700   -4.0240 C   0  0  0  0  0  0  0  0  0  0  0  0
    0.3380   -6.4890   -4.6250 C   0  0  0  0  0  0  0  0  0  0  0  0
   -0.0320   -5.3670   -3.8600 C   0  0  0  0  0  0  0  0  0  0  0  0
   -0.4460   -4.1390   -4.4270 C   0  0  0  0  0  0  0  0  0  0  0  0
   -0.5160   -3.9440   -5.9130 C   0  0  0  0  0  0  0  0  0  0  0  0
   -0.7950   -3.0900   -3.6010 C   0  0  0  0  0  0  0  0  0  0  0  0
   -0.7500   -3.2360   -2.2030 C   0  0  0  0  0  0  0  0  0  0  0  0
   -1.0650   -2.3050   -1.4260 O   0  0  0  0  0  0  0  0  0  0  0  0
   -0.3490   -4.4360   -1.6600 N   0  0  0  0  0  0  0  0  0  0  0  0
    0.0150   -5.4910   -2.4430 C   0  0  0  0  0  0  0  0  0  0  0  0
    0.4240   -6.7000   -1.8350 C   0  0  0  0  0  0  0  0  0  0  0  0
    0.3800   -9.8790   -1.2370 C   0  0  0  0  0  0  0  0  0  0  0  0
   -1.2750   -9.4220   -0.8570 Cl  0  0  0  0  0  0  0  0  0  0  0  0
    0.8480  -11.0840   -0.7130 C   0  0  0  0  0  0  0  0  0  0  0  0
  2  1  1  0
  3  2  1  0
  4  3  1  0
  5  4  1  0
  6  5  1  0
  7  6  2  0
  8  6  1  0
  9  8  2  0
 10  9  1  0
 11 10  2  0
 12 11  1  0
 13 12  2  0
 14 13  1  0
 15 14  2  0
 16 15  1  0
 17 16  1  0
 18 16  2  0
 19 18  1  0
 20 19  2  0
 21 19  1  0
 22 21  1  0
 22 15  1  0
 23 22  2  0
 23 12  1  0
 24 11  1  0
 25 24  1  0
 26  8  1  0
 26 24  2  0
M  END
$$$$
