4ivd_ligand
     RDKit          3D

 48 51  0  0  0  0  0  0  0  0999 V2000
    1.7670    5.0310    8.1820 C   0  0  0  0  0  0  0  0  0  0  0  0
    0.6190    5.5230    7.3280 C   0  0  1  0  0  0  0  0  0  0  0  0
    0.6070    4.8970    6.0550 O   0  0  0  0  0  0  0  0  0  0  0  0
   -0.7470    5.4230    7.9410 C   0  0  0  0  0  0  0  0  0  0  0  0
   -1.5650    6.4680    7.8850 N   0  0  0  0  0  0  0  0  0  0  0  0
   -2.6680    6.1420    8.6110 C   0  0  0  0  0  0  0  0  0  0  0  0
   -3.8230    6.8800    8.9250 C   0  0  0  0  0  0  0  0  0  0  0  0
   -4.8250    6.3850    9.7110 N   0  0  0  0  0  0  0  0  0  0  0  0
   -4.6110    5.1430   10.1760 C   0  0  0  0  0  0  0  0  0  0  0  0
   -5.4320    4.4240   10.9980 N   0  0  0  0  0  0  0  0  0  0  0  0
   -4.8530    3.2050   11.2770 C   0  0  0  0  0  0  0  0  0  0  0  0
   -3.6390    3.1320   10.6130 C   0  0  0  0  0  0  0  0  0  0  0  0
   -3.5100    4.3560    9.9080 C   0  0  0  0  0  0  0  0  0  0  0  0
   -2.5320    4.8580    9.0960 C   0  0  0  0  0  0  0  0  0  0  0  0
   -1.3650    4.3520    8.6010 N   0  0  0  0  0  0  0  0  0  0  0  0
   -0.9330    2.9590    8.7170 C   0  0  2  0  0  0  0  0  0  0  0  0
   -0.0060    2.7140    9.9140 C   0  0  0  0  0  0  0  0  0  0  0  0
    0.5760    1.3060    9.8640 C   0  0  0  0  0  0  0  0  0  0  0  0
    1.4930    1.1420    8.6480 C   0  0  1  0  0  0  0  0  0  0  0  0
    2.0800   -0.2830    8.5030 C   0  0  0  0  0  0  0  0  0  0  0  0
    3.3380   -0.6260    9.3050 C   0  0  0  0  0  0  0  0  0  0  0  0
    4.3170    0.4640    9.3600 C   0  0  0  0  0  0  0  0  0  0  0  0
    5.1040    1.3150    9.4020 N   0  0  0  0  0  0  0  0  0  0  0  0
    0.8940    1.6980    7.3410 C   0  0  0  0  0  0  0  0  0  0  0  0
   -0.5480    2.2010    7.4300 C   0  0  0  0  0  0  0  0  0  0  0  0
    1.5072    5.1424    9.2451 H   0  0  0  0  0  0  0  0  0  0  0  0
    1.9604    3.9710    7.9609 H   0  0  0  0  0  0  0  0  0  0  0  0
    2.6680    5.6220    7.9609 H   0  0  0  0  0  0  0  0  0  0  0  0
    0.8257    6.5990    7.2304 H   0  0  0  0  0  0  0  0  0  0  0  0
    1.1500    4.0930    6.1500 H   0  0  0  0  0  0  0  0  0  0  0  0
   -3.9240    7.8981    8.5211 H   0  0  0  0  0  0  0  0  0  0  0  0
   -6.3160    4.7650   11.3470 H   0  0  0  0  0  0  0  0  0  0  0  0
   -5.2824    2.4216   11.9189 H   0  0  0  0  0  0  0  0  0  0  0  0
   -2.9230    2.2971   10.6293 H   0  0  0  0  0  0  0  0  0  0  0  0
   -1.8808    2.4485    8.9429 H   0  0  0  0  0  0  0  0  0  0  0  0
    0.8152    3.4454    9.8906 H   0  0  0  0  0  0  0  0  0  0  0  0
   -0.5880    2.8239   10.8409 H   0  0  0  0  0  0  0  0  0  0  0  0
    1.1555    1.1221   10.7807 H   0  0  0  0  0  0  0  0  0  0  0  0
   -0.2504    0.5844    9.7836 H   0  0  0  0  0  0  0  0  0  0  0  0
    2.3589    1.7869    8.8584 H   0  0  0  0  0  0  0  0  0  0  0  0
    1.2956   -0.9924    8.8053 H   0  0  0  0  0  0  0  0  0  0  0  0
    2.3987   -0.3437    7.4519 H   0  0  0  0  0  0  0  0  0  0  0  0
    3.0372   -0.8749   10.3334 H   0  0  0  0  0  0  0  0  0  0  0  0
    3.8248   -1.4700    8.7943 H   0  0  0  0  0  0  0  0  0  0  0  0
    1.5243    2.5370    7.0112 H   0  0  0  0  0  0  0  0  0  0  0  0
    0.8721    0.8515    6.6389 H   0  0  0  0  0  0  0  0  0  0  0  0
   -0.7194    2.8773    6.5796 H   0  0  0  0  0  0  0  0  0  0  0  0
   -1.1733    1.2960    7.4264 H   0  0  0  0  0  0  0  0  0  0  0  0
  1  2  1  0
  2  3  1  0
  2  4  1  0
  4  5  2  0
  5  6  1  0
  6  7  2  0
  7  8  1  0
  8  9  2  0
  9 10  1  0
 10 11  1  0
 11 12  2  0
 12 13  1  0
 13 14  2  0
 14 15  1  0
 15 16  1  0
 16 17  1  0
 17 18  1  0
 18 19  1  0
 19 20  1  0
 20 21  1  0
 21 22  1  0
 22 23  3  0
 19 24  1  0
 24 25  1  0
 15  4  1  0
 25 16  1  0
 14  6  1  0
 13  9  1  0
  1 26  1  0
  1 27  1  0
  1 28  1  0
  2 29  1  6
  3 30  1  0
  7 31  1  0
 10 32  1  0
 11 33  1  0
 12 34  1  0
 16 35  1  6
 17 36  1  0
 17 37  1  0
 18 38  1  0
 18 39  1  0
 19 40  1  6
 20 41  1  0
 20 42  1  0
 21 43  1  0
 21 44  1  0
 24 45  1  0
 24 46  1  0
 25 47  1  0
 25 48  1  0
M  END
>  <meeko>  (1) 
{"is_sidechain": [false], "free_energy": -8.542, "intermolecular_energy": -10.789, "internal_energy": -0.835}

$$$$
4ivd_ligand
     RDKit          3D

 48 51  0  0  0  0  0  0  0  0999 V2000
   -6.0420    1.6990   12.4880 C   0  0  0  0  0  0  0  0  0  0  0  0
   -4.7790    1.5450   11.6680 C   0  0  1  0  0  0  0  0  0  0  0  0
   -4.9180    0.5430   10.6740 O   0  0  0  0  0  0  0  0  0  0  0  0
   -4.2480    2.7990   11.0360 C   0  0  0  0  0  0  0  0  0  0  0  0
   -5.0020    3.8910   11.0210 N   0  0  0  0  0  0  0  0  0  0  0  0
   -4.3290    4.8230   10.2940 C   0  0  0  0  0  0  0  0  0  0  0  0
   -4.6720    6.1340    9.9190 C   0  0  0  0  0  0  0  0  0  0  0  0
   -3.8650    6.9170    9.1440 N   0  0  0  0  0  0  0  0  0  0  0  0
   -2.7220    6.3280    8.7520 C   0  0  0  0  0  0  0  0  0  0  0  0
   -1.7540    6.8710    7.9560 N   0  0  0  0  0  0  0  0  0  0  0  0
   -0.7510    5.9470    7.7550 C   0  0  0  0  0  0  0  0  0  0  0  0
   -1.0740    4.7890    8.4440 C   0  0  0  0  0  0  0  0  0  0  0  0
   -2.3130    5.0530    9.0820 C   0  0  0  0  0  0  0  0  0  0  0  0
   -3.1220    4.2960    9.8830 C   0  0  0  0  0  0  0  0  0  0  0  0
   -3.0110    3.0480   10.4250 N   0  0  0  0  0  0  0  0  0  0  0  0
   -1.8070    2.2180   10.3940 C   0  0  2  0  0  0  0  0  0  0  0  0
   -0.6030    2.8770   11.0790 C   0  0  0  0  0  0  0  0  0  0  0  0
    0.6650    2.0670   10.8340 C   0  0  0  0  0  0  0  0  0  0  0  0
    1.0350    2.0770    9.3470 C   0  0  1  0  0  0  0  0  0  0  0  0
    2.2860    1.2280    9.0150 C   0  0  0  0  0  0  0  0  0  0  0  0
    3.2630    0.9160   10.1520 C   0  0  0  0  0  0  0  0  0  0  0  0
    4.6160    1.4340    9.9240 C   0  0  0  0  0  0  0  0  0  0  0  0
    5.6920    1.8300    9.7510 N   0  0  0  0  0  0  0  0  0  0  0  0
   -0.1590    1.8080    8.4100 C   0  0  0  0  0  0  0  0  0  0  0  0
   -1.4790    1.4510    9.0970 C   0  0  0  0  0  0  0  0  0  0  0  0
   -5.7903    1.6683   13.5584 H   0  0  0  0  0  0  0  0  0  0  0  0
   -6.5181    2.6618   12.2508 H   0  0  0  0  0  0  0  0  0  0  0  0
   -6.7355    0.8788   12.2508 H   0  0  0  0  0  0  0  0  0  0  0  0
   -4.0312    1.2471   12.4177 H   0  0  0  0  0  0  0  0  0  0  0  0
   -4.6770   -0.2960   11.1090 H   0  0  0  0  0  0  0  0  0  0  0  0
   -5.6313    6.5466   10.2646 H   0  0  0  0  0  0  0  0  0  0  0  0
   -1.7990    7.8040    7.5740 H   0  0  0  0  0  0  0  0  0  0  0  0
    0.1539    6.1028    7.1493 H   0  0  0  0  0  0  0  0  0  0  0  0
   -0.4903    3.8576    8.4872 H   0  0  0  0  0  0  0  0  0  0  0  0
   -2.1033    1.3693   11.0280 H   0  0  0  0  0  0  0  0  0  0  0  0
   -0.4677    3.8910   10.6747 H   0  0  0  0  0  0  0  0  0  0  0  0
   -0.7917    2.9204   12.1618 H   0  0  0  0  0  0  0  0  0  0  0  0
    1.4907    2.5043   11.4145 H   0  0  0  0  0  0  0  0  0  0  0  0
    0.4869    1.0277   11.1472 H   0  0  0  0  0  0  0  0  0  0  0  0
    1.3309    3.1153    9.1363 H   0  0  0  0  0  0  0  0  0  0  0  0
    1.9324    0.2667    8.6140 H   0  0  0  0  0  0  0  0  0  0  0  0
    2.8648    1.8511    8.3174 H   0  0  0  0  0  0  0  0  0  0  0  0
    2.8718    1.3617   11.0784 H   0  0  0  0  0  0  0  0  0  0  0  0
    3.3440   -0.1792   10.2155 H   0  0  0  0  0  0  0  0  0  0  0  0
   -0.3261    2.7135    7.8082 H   0  0  0  0  0  0  0  0  0  0  0  0
    0.1189    0.9225    7.8195 H   0  0  0  0  0  0  0  0  0  0  0  0
   -2.2915    1.6424    8.3806 H   0  0  0  0  0  0  0  0  0  0  0  0
   -1.3757    0.3982    9.3986 H   0  0  0  0  0  0  0  0  0  0  0  0
  1  2  1  0
  2  3  1  0
  2  4  1  0
  4  5  2  0
  5  6  1  0
  6  7  2  0
  7  8  1  0
  8  9  2  0
  9 10  1  0
 10 11  1  0
 11 12  2  0
 12 13  1  0
 13 14  2  0
 14 15  1  0
 15 16  1  0
 16 17  1  0
 17 18  1  0
 18 19  1  0
 19 20  1  0
 20 21  1  0
 21 22  1  0
 22 23  3  0
 19 24  1  0
 24 25  1  0
 15  4  1  0
 25 16  1  0
 14  6  1  0
 13  9  1  0
  1 26  1  0
  1 27  1  0
  1 28  1  0
  2 29  1  1
  3 30  1  0
  7 31  1  0
 10 32  1  0
 11 33  1  0
 12 34  1  0
 16 35  1  6
 17 36  1  0
 17 37  1  0
 18 38  1  0
 18 39  1  0
 19 40  1  1
 20 41  1  0
 20 42  1  0
 21 43  1  0
 21 44  1  0
 24 45  1  0
 24 46  1  0
 25 47  1  0
 25 48  1  0
M  END
>  <meeko>  (2) 
{"is_sidechain": [false], "free_energy": -8.324, "intermolecular_energy": -11.053, "internal_energy": -0.296}

$$$$
4ivd_ligand
     RDKit          3D

 48 51  0  0  0  0  0  0  0  0999 V2000
   -0.2960   -1.5890   10.9750 C   0  0  0  0  0  0  0  0  0  0  0  0
   -0.7280   -0.9570    9.6700 C   0  0  1  0  0  0  0  0  0  0  0  0
   -1.4520   -1.8690    8.8600 O   0  0  0  0  0  0  0  0  0  0  0  0
   -1.4990    0.3260    9.7840 C   0  0  0  0  0  0  0  0  0  0  0  0
   -2.8170    0.2820    9.9390 N   0  0  0  0  0  0  0  0  0  0  0  0
   -3.2600    1.5680    9.8940 C   0  0  0  0  0  0  0  0  0  0  0  0
   -4.5570    2.1050    9.9600 C   0  0  0  0  0  0  0  0  0  0  0  0
   -4.8090    3.4440    9.8610 N   0  0  0  0  0  0  0  0  0  0  0  0
   -3.7180    4.2070    9.6780 C   0  0  0  0  0  0  0  0  0  0  0  0
   -3.6860    5.5640    9.5220 N   0  0  0  0  0  0  0  0  0  0  0  0
   -2.3840    5.9740    9.3270 C   0  0  0  0  0  0  0  0  0  0  0  0
   -1.5600    4.8610    9.3690 C   0  0  0  0  0  0  0  0  0  0  0  0
   -2.4160    3.7570    9.6080 C   0  0  0  0  0  0  0  0  0  0  0  0
   -2.1830    2.4150    9.7390 C   0  0  0  0  0  0  0  0  0  0  0  0
   -1.0510    1.6540    9.7640 N   0  0  0  0  0  0  0  0  0  0  0  0
    0.3160    2.1730    9.8190 C   0  0  2  0  0  0  0  0  0  0  0  0
    1.0550    2.0640    8.4800 C   0  0  0  0  0  0  0  0  0  0  0  0
    2.5270    2.4220    8.6480 C   0  0  0  0  0  0  0  0  0  0  0  0
    3.2350    1.4000    9.5440 C   0  0  1  0  0  0  0  0  0  0  0  0
    4.7240    1.7300    9.8030 C   0  0  0  0  0  0  0  0  0  0  0  0
    5.7810    0.8770    9.0970 C   0  0  0  0  0  0  0  0  0  0  0  0
    5.3070   -0.4610    8.7260 C   0  0  0  0  0  0  0  0  0  0  0  0
    4.9460   -1.5240    8.4370 N   0  0  0  0  0  0  0  0  0  0  0  0
    2.4490    1.0510   10.8240 C   0  0  0  0  0  0  0  0  0  0  0  0
    1.1710    1.8570   11.0630 C   0  0  0  0  0  0  0  0  0  0  0  0
   -0.6961   -1.0037   11.8160 H   0  0  0  0  0  0  0  0  0  0  0  0
   -0.6804   -2.6182   11.0289 H   0  0  0  0  0  0  0  0  0  0  0  0
    0.8026   -1.6046   11.0289 H   0  0  0  0  0  0  0  0  0  0  0  0
    0.2275   -0.6905    9.1946 H   0  0  0  0  0  0  0  0  0  0  0  0
   -1.0850   -2.7490    9.0610 H   0  0  0  0  0  0  0  0  0  0  0  0
   -5.4052    1.4181   10.0972 H   0  0  0  0  0  0  0  0  0  0  0  0
   -4.5070    6.1510    9.5360 H   0  0  0  0  0  0  0  0  0  0  0  0
   -2.0547    7.0110    9.1652 H   0  0  0  0  0  0  0  0  0  0  0  0
   -0.4675    4.8388    9.2429 H   0  0  0  0  0  0  0  0  0  0  0  0
    0.1424    3.2447    9.9961 H   0  0  0  0  0  0  0  0  0  0  0  0
    0.9744    1.0328    8.1057 H   0  0  0  0  0  0  0  0  0  0  0  0
    0.5991    2.7653    7.7656 H   0  0  0  0  0  0  0  0  0  0  0  0
    3.0109    2.4325    7.6602 H   0  0  0  0  0  0  0  0  0  0  0  0
    2.5979    3.4137    9.1187 H   0  0  0  0  0  0  0  0  0  0  0  0
    3.2480    0.4699    8.9568 H   0  0  0  0  0  0  0  0  0  0  0  0
    4.8864    2.7735    9.4952 H   0  0  0  0  0  0  0  0  0  0  0  0
    4.8705    1.5203   10.8728 H   0  0  0  0  0  0  0  0  0  0  0  0
    6.0952    1.4003    8.1819 H   0  0  0  0  0  0  0  0  0  0  0  0
    6.6098    0.7392    9.8070 H   0  0  0  0  0  0  0  0  0  0  0  0
    2.1720   -0.0122   10.7702 H   0  0  0  0  0  0  0  0  0  0  0  0
    3.1182    1.2982   11.6613 H   0  0  0  0  0  0  0  0  0  0  0  0
    0.5432    1.2883   11.7648 H   0  0  0  0  0  0  0  0  0  0  0  0
    1.5081    2.8334   11.4411 H   0  0  0  0  0  0  0  0  0  0  0  0
  1  2  1  0
  2  3  1  0
  2  4  1  0
  4  5  2  0
  5  6  1  0
  6  7  2  0
  7  8  1  0
  8  9  2  0
  9 10  1  0
 10 11  1  0
 11 12  2  0
 12 13  1  0
 13 14  2  0
 14 15  1  0
 15 16  1  0
 16 17  1  0
 17 18  1  0
 18 19  1  0
 19 20  1  0
 20 21  1  0
 21 22  1  0
 22 23  3  0
 19 24  1  0
 24 25  1  0
 15  4  1  0
 25 16  1  0
 14  6  1  0
 13  9  1  0
  1 26  1  0
  1 27  1  0
  1 28  1  0
  2 29  1  6
  3 30  1  0
  7 31  1  0
 10 32  1  0
 11 33  1  0
 12 34  1  0
 16 35  1  6
 17 36  1  0
 17 37  1  0
 18 38  1  0
 18 39  1  0
 19 40  1  1
 20 41  1  0
 20 42  1  0
 21 43  1  0
 21 44  1  0
 24 45  1  0
 24 46  1  0
 25 47  1  0
 25 48  1  0
M  END
>  <meeko>  (3) 
{"is_sidechain": [false], "free_energy": -8.316, "intermolecular_energy": -10.214, "internal_energy": -1.125}

$$$$
4ivd_ligand
     RDKit          3D

 48 51  0  0  0  0  0  0  0  0999 V2000
   -1.7560   -0.7850   10.7660 C   0  0  0  0  0  0  0  0  0  0  0  0
   -1.2570   -0.8200    9.3370 C   0  0  1  0  0  0  0  0  0  0  0  0
   -1.9830    0.0720    8.5070 O   0  0  0  0  0  0  0  0  0  0  0  0
    0.2140   -0.5870    9.1480 C   0  0  0  0  0  0  0  0  0  0  0  0
    0.9790   -1.5800    8.7130 N   0  0  0  0  0  0  0  0  0  0  0  0
    2.2630   -1.1300    8.7480 C   0  0  0  0  0  0  0  0  0  0  0  0
    3.4790   -1.7670    8.4430 C   0  0  0  0  0  0  0  0  0  0  0  0
    4.6900   -1.1510    8.5760 N   0  0  0  0  0  0  0  0  0  0  0  0
    4.6300    0.1100    9.0390 C   0  0  0  0  0  0  0  0  0  0  0  0
    5.6850    0.9400    9.2890 N   0  0  0  0  0  0  0  0  0  0  0  0
    5.2190    2.1400    9.7830 C   0  0  0  0  0  0  0  0  0  0  0  0
    3.8360    2.0850    9.8440 C   0  0  0  0  0  0  0  0  0  0  0  0
    3.4800    0.8030    9.3540 C   0  0  0  0  0  0  0  0  0  0  0  0
    2.2750    0.1780    9.1870 C   0  0  0  0  0  0  0  0  0  0  0  0
    0.9780    0.5700    9.3520 N   0  0  0  0  0  0  0  0  0  0  0  0
    0.5380    1.9380    9.6250 C   0  0  2  0  0  0  0  0  0  0  0  0
   -0.4150    2.0360   10.8230 C   0  0  0  0  0  0  0  0  0  0  0  0
   -1.0010    3.4390   10.9300 C   0  0  0  0  0  0  0  0  0  0  0  0
   -1.8930    3.7470    9.7230 C   0  0  1  0  0  0  0  0  0  0  0  0
   -2.4820    5.1780    9.7370 C   0  0  0  0  0  0  0  0  0  0  0  0
   -4.0060    5.3260    9.7400 C   0  0  0  0  0  0  0  0  0  0  0  0
   -4.6900    4.3550   10.6010 C   0  0  0  0  0  0  0  0  0  0  0  0
   -5.2430    3.5860   11.2690 N   0  0  0  0  0  0  0  0  0  0  0  0
   -1.2640    3.3530    8.3710 C   0  0  0  0  0  0  0  0  0  0  0  0
    0.1780    2.8450    8.4310 C   0  0  0  0  0  0  0  0  0  0  0  0
   -0.9004   -0.8450   11.4547 H   0  0  0  0  0  0  0  0  0  0  0  0
   -2.3022    0.1537   10.9408 H   0  0  0  0  0  0  0  0  0  0  0  0
   -2.4279   -1.6382   10.9408 H   0  0  0  0  0  0  0  0  0  0  0  0
   -1.4358   -1.8629    9.0363 H   0  0  0  0  0  0  0  0  0  0  0  0
   -1.3260    0.7010    8.1560 H   0  0  0  0  0  0  0  0  0  0  0  0
    3.4533   -2.8057    8.0819 H   0  0  0  0  0  0  0  0  0  0  0  0
    6.6500    0.6840    9.1400 H   0  0  0  0  0  0  0  0  0  0  0  0
    5.8412    2.9975   10.0791 H   0  0  0  0  0  0  0  0  0  0  0  0
    3.1552    2.8727   10.1990 H   0  0  0  0  0  0  0  0  0  0  0  0
    1.4789    2.4190    9.9307 H   0  0  0  0  0  0  0  0  0  0  0  0
   -1.2328    1.3116   10.6944 H   0  0  0  0  0  0  0  0  0  0  0  0
    0.1477    1.8160   11.7422 H   0  0  0  0  0  0  0  0  0  0  0  0
   -1.6004    3.5108   11.8496 H   0  0  0  0  0  0  0  0  0  0  0  0
   -0.1758    4.1659   10.9545 H   0  0  0  0  0  0  0  0  0  0  0  0
   -2.7606    3.0804    9.8365 H   0  0  0  0  0  0  0  0  0  0  0  0
   -2.1025    5.6795   10.6395 H   0  0  0  0  0  0  0  0  0  0  0  0
   -2.1644    5.6161    8.7793 H   0  0  0  0  0  0  0  0  0  0  0  0
   -4.2561    6.3381   10.0907 H   0  0  0  0  0  0  0  0  0  0  0  0
   -4.3494    5.1421    8.7113 H   0  0  0  0  0  0  0  0  0  0  0  0
   -1.8836    2.5588    7.9290 H   0  0  0  0  0  0  0  0  0  0  0  0
   -1.2308    4.2775    7.7759 H   0  0  0  0  0  0  0  0  0  0  0  0
    0.3709    2.2765    7.5092 H   0  0  0  0  0  0  0  0  0  0  0  0
    0.7993    3.7448    8.5508 H   0  0  0  0  0  0  0  0  0  0  0  0
  1  2  1  0
  2  3  1  0
  2  4  1  0
  4  5  2  0
  5  6  1  0
  6  7  2  0
  7  8  1  0
  8  9  2  0
  9 10  1  0
 10 11  1  0
 11 12  2  0
 12 13  1  0
 13 14  2  0
 14 15  1  0
 15 16  1  0
 16 17  1  0
 17 18  1  0
 18 19  1  0
 19 20  1  0
 20 21  1  0
 21 22  1  0
 22 23  3  0
 19 24  1  0
 24 25  1  0
 15  4  1  0
 25 16  1  0
 14  6  1  0
 13  9  1  0
  1 26  1  0
  1 27  1  0
  1 28  1  0
  2 29  1  6
  3 30  1  0
  7 31  1  0
 10 32  1  0
 11 33  1  0
 12 34  1  0
 16 35  1  6
 17 36  1  0
 17 37  1  0
 18 38  1  0
 18 39  1  0
 19 40  1  6
 20 41  1  0
 20 42  1  0
 21 43  1  0
 21 44  1  0
 24 45  1  0
 24 46  1  0
 25 47  1  0
 25 48  1  0
M  END
>  <meeko>  (4) 
{"is_sidechain": [false], "free_energy": -8.288, "intermolecular_energy": -10.819, "internal_energy": -0.485}

$$$$
4ivd_ligand
     RDKit          3D

 48 51  0  0  0  0  0  0  0  0999 V2000
    0.9990    3.8210    6.9190 C   0  0  0  0  0  0  0  0  0  0  0  0
    0.7440    4.5010    8.2470 C   0  0  1  0  0  0  0  0  0  0  0  0
    1.3490    5.7830    8.3040 O   0  0  0  0  0  0  0  0  0  0  0  0
   -0.6930    4.6120    8.6650 C   0  0  0  0  0  0  0  0  0  0  0  0
   -1.3640    5.7270    8.3990 N   0  0  0  0  0  0  0  0  0  0  0  0
   -2.5850    5.5980    8.9860 C   0  0  0  0  0  0  0  0  0  0  0  0
   -3.6750    6.4830    9.0650 C   0  0  0  0  0  0  0  0  0  0  0  0
   -4.8240    6.1820    9.7400 N   0  0  0  0  0  0  0  0  0  0  0  0
   -4.8240    4.9790   10.3380 C   0  0  0  0  0  0  0  0  0  0  0  0
   -5.8270    4.4420   11.0940 N   0  0  0  0  0  0  0  0  0  0  0  0
   -5.4400    3.2030   11.5590 C   0  0  0  0  0  0  0  0  0  0  0  0
   -4.1670    2.9320   11.0850 C   0  0  0  0  0  0  0  0  0  0  0  0
   -3.8000    4.0560   10.3010 C   0  0  0  0  0  0  0  0  0  0  0  0
   -2.6700    4.3640    9.5970 C   0  0  0  0  0  0  0  0  0  0  0  0
   -1.5170    3.6870    9.3210 N   0  0  0  0  0  0  0  0  0  0  0  0
   -1.2740    2.2760    9.6200 C   0  0  2  0  0  0  0  0  0  0  0  0
   -0.2760    2.0660   10.7660 C   0  0  0  0  0  0  0  0  0  0  0  0
    0.0950    0.5930   10.8930 C   0  0  0  0  0  0  0  0  0  0  0  0
    0.8560    0.1180    9.6510 C   0  0  1  0  0  0  0  0  0  0  0  0
    1.2200   -1.3850    9.6860 C   0  0  0  0  0  0  0  0  0  0  0  0
    0.3050   -2.3630    8.9430 C   0  0  0  0  0  0  0  0  0  0  0  0
   -1.0460   -2.4490    9.5070 C   0  0  0  0  0  0  0  0  0  0  0  0
   -2.1140   -2.5340    9.9500 N   0  0  0  0  0  0  0  0  0  0  0  0
    0.2140    0.5660    8.3220 C   0  0  0  0  0  0  0  0  0  0  0  0
   -1.1280    1.2910    8.4420 C   0  0  0  0  0  0  0  0  0  0  0  0
    1.3803    2.8043    7.0949 H   0  0  0  0  0  0  0  0  0  0  0  0
    0.0601    3.7669    6.3485 H   0  0  0  0  0  0  0  0  0  0  0  0
    1.7420    4.3976    6.3485 H   0  0  0  0  0  0  0  0  0  0  0  0
    1.2132    3.8174    8.9698 H   0  0  0  0  0  0  0  0  0  0  0  0
    1.6060    5.9950    7.3880 H   0  0  0  0  0  0  0  0  0  0  0  0
   -3.5993    7.4585    8.5623 H   0  0  0  0  0  0  0  0  0  0  0  0
   -6.7020    4.9090   11.2810 H   0  0  0  0  0  0  0  0  0  0  0  0
   -6.0414    2.5407   12.1991 H   0  0  0  0  0  0  0  0  0  0  0  0
   -3.5651    2.0315   11.2768 H   0  0  0  0  0  0  0  0  0  0  0  0
   -2.2569    1.9549    9.9953 H   0  0  0  0  0  0  0  0  0  0  0  0
    0.6333    2.6515   10.5650 H   0  0  0  0  0  0  0  0  0  0  0  0
   -0.7419    2.3961   11.7062 H   0  0  0  0  0  0  0  0  0  0  0  0
    0.7304    0.4557   11.7804 H   0  0  0  0  0  0  0  0  0  0  0  0
   -0.8280    0.0026   10.9899 H   0  0  0  0  0  0  0  0  0  0  0  0
    1.8201    0.6461    9.6913 H   0  0  0  0  0  0  0  0  0  0  0  0
    2.2271   -1.4879    9.2558 H   0  0  0  0  0  0  0  0  0  0  0  0
    1.1224   -1.6671   10.7447 H   0  0  0  0  0  0  0  0  0  0  0  0
    0.2242   -2.0361    7.8958 H   0  0  0  0  0  0  0  0  0  0  0  0
    0.7572   -3.3614    9.0367 H   0  0  0  0  0  0  0  0  0  0  0  0
    0.9194    1.2429    7.8177 H   0  0  0  0  0  0  0  0  0  0  0  0
    0.0051   -0.3589    7.7643 H   0  0  0  0  0  0  0  0  0  0  0  0
   -1.2871    1.8562    7.5118 H   0  0  0  0  0  0  0  0  0  0  0  0
   -1.8705    0.5011    8.6286 H   0  0  0  0  0  0  0  0  0  0  0  0
  1  2  1  0
  2  3  1  0
  2  4  1  0
  4  5  2  0
  5  6  1  0
  6  7  2  0
  7  8  1  0
  8  9  2  0
  9 10  1  0
 10 11  1  0
 11 12  2  0
 12 13  1  0
 13 14  2  0
 14 15  1  0
 15 16  1  0
 16 17  1  0
 17 18  1  0
 18 19  1  0
 19 20  1  0
 20 21  1  0
 21 22  1  0
 22 23  3  0
 19 24  1  0
 24 25  1  0
 15  4  1  0
 25 16  1  0
 14  6  1  0
 13  9  1  0
  1 26  1  0
  1 27  1  0
  1 28  1  0
  2 29  1  1
  3 30  1  0
  7 31  1  0
 10 32  1  0
 11 33  1  0
 12 34  1  0
 16 35  1  6
 17 36  1  0
 17 37  1  0
 18 38  1  0
 18 39  1  0
 19 40  1  6
 20 41  1  0
 20 42  1  0
 21 43  1  0
 21 44  1  0
 24 45  1  0
 24 46  1  0
 25 47  1  0
 25 48  1  0
M  END
>  <meeko>  (5) 
{"is_sidechain": [false], "free_energy": -8.284, "intermolecular_energy": -10.181, "internal_energy": -1.118}

$$$$
4ivd_ligand
     RDKit          3D

 48 51  0  0  0  0  0  0  0  0999 V2000
   -2.1900   -1.1080    9.7310 C   0  0  0  0  0  0  0  0  0  0  0  0
   -2.5760   -0.5330   11.0760 C   0  0  1  0  0  0  0  0  0  0  0  0
   -1.4840   -0.5340   11.9810 O   0  0  0  0  0  0  0  0  0  0  0  0
   -3.2000    0.8330   11.0530 C   0  0  0  0  0  0  0  0  0  0  0  0
   -4.3630    1.0280   11.6610 N   0  0  0  0  0  0  0  0  0  0  0  0
   -4.7420    2.3050   11.3820 C   0  0  0  0  0  0  0  0  0  0  0  0
   -5.8980    3.0270   11.7270 C   0  0  0  0  0  0  0  0  0  0  0  0
   -6.1180    4.3110   11.3170 N   0  0  0  0  0  0  0  0  0  0  0  0
   -5.1470    4.8260   10.5440 C   0  0  0  0  0  0  0  0  0  0  0  0
   -5.1240    6.0710    9.9800 N   0  0  0  0  0  0  0  0  0  0  0  0
   -3.9760    6.2160    9.2320 C   0  0  0  0  0  0  0  0  0  0  0  0
   -3.2390    5.0460    9.3220 C   0  0  0  0  0  0  0  0  0  0  0  0
   -3.9850    4.1860   10.1680 C   0  0  0  0  0  0  0  0  0  0  0  0
   -3.7700    2.9100   10.6120 C   0  0  0  0  0  0  0  0  0  0  0  0
   -2.7410    2.0250   10.4750 N   0  0  0  0  0  0  0  0  0  0  0  0
   -1.4350    2.3310    9.8910 C   0  0  2  0  0  0  0  0  0  0  0  0
   -1.2040    1.6440    8.5390 C   0  0  0  0  0  0  0  0  0  0  0  0
    0.2390    1.8280    8.0830 C   0  0  0  0  0  0  0  0  0  0  0  0
    1.2030    1.1090    9.0320 C   0  0  1  0  0  0  0  0  0  0  0  0
    2.6930    1.2970    8.6610 C   0  0  0  0  0  0  0  0  0  0  0  0
    3.3540    2.6360    9.0010 C   0  0  0  0  0  0  0  0  0  0  0  0
    2.9800    3.7250    8.0930 C   0  0  0  0  0  0  0  0  0  0  0  0
    2.7000    4.5920    7.3750 N   0  0  0  0  0  0  0  0  0  0  0  0
    0.9050    1.3590   10.5240 C   0  0  0  0  0  0  0  0  0  0  0  0
   -0.2060    2.3680   10.8220 C   0  0  0  0  0  0  0  0  0  0  0  0
   -1.5825   -2.0129    9.8798 H   0  0  0  0  0  0  0  0  0  0  0  0
   -3.0991   -1.3652    9.1676 H   0  0  0  0  0  0  0  0  0  0  0  0
   -1.6077   -0.3640    9.1676 H   0  0  0  0  0  0  0  0  0  0  0  0
   -3.3652   -1.2174   11.4207 H   0  0  0  0  0  0  0  0  0  0  0  0
   -1.5190   -1.3950   12.4360 H   0  0  0  0  0  0  0  0  0  0  0  0
   -6.6575    2.5369   12.3538 H   0  0  0  0  0  0  0  0  0  0  0  0
   -5.8570    6.7540   10.0980 H   0  0  0  0  0  0  0  0  0  0  0  0
   -3.6920    7.1110    8.6591 H   0  0  0  0  0  0  0  0  0  0  0  0
   -2.2754    4.8292    8.8378 H   0  0  0  0  0  0  0  0  0  0  0  0
   -1.5281    3.4074    9.6844 H   0  0  0  0  0  0  0  0  0  0  0  0
   -1.4175    0.5695    8.6384 H   0  0  0  0  0  0  0  0  0  0  0  0
   -1.8724    2.0974    7.7922 H   0  0  0  0  0  0  0  0  0  0  0  0
    0.3532    1.4138    7.0704 H   0  0  0  0  0  0  0  0  0  0  0  0
    0.4762    2.9021    8.0852 H   0  0  0  0  0  0  0  0  0  0  0  0
    1.0030    0.0384    8.8779 H   0  0  0  0  0  0  0  0  0  0  0  0
    3.2611    0.5105    9.1794 H   0  0  0  0  0  0  0  0  0  0  0  0
    2.7108    1.2525    7.5620 H   0  0  0  0  0  0  0  0  0  0  0  0
    3.0600    2.9190   10.0225 H   0  0  0  0  0  0  0  0  0  0  0  0
    4.4401    2.4930    8.9015 H   0  0  0  0  0  0  0  0  0  0  0  0
    0.6183    0.3982   10.9764 H   0  0  0  0  0  0  0  0  0  0  0  0
    1.8240    1.7947   10.9429 H   0  0  0  0  0  0  0  0  0  0  0  0
   -0.5579    2.1847   11.8479 H   0  0  0  0  0  0  0  0  0  0  0  0
    0.2487    3.3573   10.6657 H   0  0  0  0  0  0  0  0  0  0  0  0
  1  2  1  0
  2  3  1  0
  2  4  1  0
  4  5  2  0
  5  6  1  0
  6  7  2  0
  7  8  1  0
  8  9  2  0
  9 10  1  0
 10 11  1  0
 11 12  2  0
 12 13  1  0
 13 14  2  0
 14 15  1  0
 15 16  1  0
 16 17  1  0
 17 18  1  0
 18 19  1  0
 19 20  1  0
 20 21  1  0
 21 22  1  0
 22 23  3  0
 19 24  1  0
 24 25  1  0
 15  4  1  0
 25 16  1  0
 14  6  1  0
 13  9  1  0
  1 26  1  0
  1 27  1  0
  1 28  1  0
  2 29  1  1
  3 30  1  0
  7 31  1  0
 10 32  1  0
 11 33  1  0
 12 34  1  0
 16 35  1  1
 17 36  1  0
 17 37  1  0
 18 38  1  0
 18 39  1  0
 19 40  1  6
 20 41  1  0
 20 42  1  0
 21 43  1  0
 21 44  1  0
 24 45  1  0
 24 46  1  0
 25 47  1  0
 25 48  1  0
M  END
>  <meeko>  (6) 
{"is_sidechain": [false], "free_energy": -8.274, "intermolecular_energy": -10.565, "internal_energy": -0.721}

$$$$
4ivd_ligand
     RDKit          3D

 48 51  0  0  0  0  0  0  0  0999 V2000
    0.3860    5.3330    8.1170 C   0  0  0  0  0  0  0  0  0  0  0  0
    0.1550    3.9410    7.5710 C   0  0  1  0  0  0  0  0  0  0  0  0
    0.5610    3.8350    6.2160 O   0  0  0  0  0  0  0  0  0  0  0  0
    0.7610    2.8160    8.3590 C   0  0  0  0  0  0  0  0  0  0  0  0
    2.0200    2.4640    8.1290 N   0  0  0  0  0  0  0  0  0  0  0  0
    2.2630    1.3600    8.8870 C   0  0  0  0  0  0  0  0  0  0  0  0
    3.4050    0.5470    9.0040 C   0  0  0  0  0  0  0  0  0  0  0  0
    3.4460   -0.5580    9.8060 N   0  0  0  0  0  0  0  0  0  0  0  0
    2.3030   -0.8170   10.4620 C   0  0  0  0  0  0  0  0  0  0  0  0
    2.0630   -1.8670   11.3030 N   0  0  0  0  0  0  0  0  0  0  0  0
    0.7620   -1.8050   11.7560 C   0  0  0  0  0  0  0  0  0  0  0  0
    0.1550   -0.6890   11.2040 C   0  0  0  0  0  0  0  0  0  0  0  0
    1.1470   -0.0670   10.4040 C   0  0  0  0  0  0  0  0  0  0  0  0
    1.1340    1.0520    9.6180 C   0  0  0  0  0  0  0  0  0  0  0  0
    0.2050    2.0190    9.3700 N   0  0  0  0  0  0  0  0  0  0  0  0
   -1.0620    2.1760   10.0830 C   0  0  2  0  0  0  0  0  0  0  0  0
   -2.2680    1.6530    9.2920 C   0  0  0  0  0  0  0  0  0  0  0  0
   -3.5710    2.0290    9.9870 C   0  0  0  0  0  0  0  0  0  0  0  0
   -3.7640    3.5490    9.9900 C   0  0  1  0  0  0  0  0  0  0  0  0
   -5.0440    4.0090   10.7280 C   0  0  0  0  0  0  0  0  0  0  0  0
   -5.5700    3.1320   11.8680 C   0  0  0  0  0  0  0  0  0  0  0  0
   -6.9460    3.4470   12.2660 C   0  0  0  0  0  0  0  0  0  0  0  0
   -8.0300    3.6930   12.5970 N   0  0  0  0  0  0  0  0  0  0  0  0
   -2.5010    4.3330   10.4010 C   0  0  0  0  0  0  0  0  0  0  0  0
   -1.3110    3.4860   10.8580 C   0  0  0  0  0  0  0  0  0  0  0  0
    0.3807    5.3011    9.2165 H   0  0  0  0  0  0  0  0  0  0  0  0
    1.3586    5.7079    7.7657 H   0  0  0  0  0  0  0  0  0  0  0  0
   -0.4134    6.0020    7.7657 H   0  0  0  0  0  0  0  0  0  0  0  0
   -0.9343    3.8170    7.6608 H   0  0  0  0  0  0  0  0  0  0  0  0
    0.5680    4.7460    5.8700 H   0  0  0  0  0  0  0  0  0  0  0  0
    4.3023    0.8121    8.4256 H   0  0  0  0  0  0  0  0  0  0  0  0
    2.7470   -2.5740   11.5290 H   0  0  0  0  0  0  0  0  0  0  0  0
    0.2859   -2.5219   12.4411 H   0  0  0  0  0  0  0  0  0  0  0  0
   -0.8820   -0.3544   11.3550 H   0  0  0  0  0  0  0  0  0  0  0  0
   -0.9240    1.4937   10.9347 H   0  0  0  0  0  0  0  0  0  0  0  0
   -2.2566    2.0923    8.2836 H   0  0  0  0  0  0  0  0  0  0  0  0
   -2.2029    0.5566    9.2310 H   0  0  0  0  0  0  0  0  0  0  0  0
   -4.4121    1.5592    9.4561 H   0  0  0  0  0  0  0  0  0  0  0  0
   -3.5315    1.6754   11.0279 H   0  0  0  0  0  0  0  0  0  0  0  0
   -3.9314    3.8141    8.9356 H   0  0  0  0  0  0  0  0  0  0  0  0
   -4.8393    5.0046   11.1487 H   0  0  0  0  0  0  0  0  0  0  0  0
   -5.8329    3.9676    9.9625 H   0  0  0  0  0  0  0  0  0  0  0  0
   -5.5340    2.0816   11.5434 H   0  0  0  0  0  0  0  0  0  0  0  0
   -4.9303    3.3226   12.7423 H   0  0  0  0  0  0  0  0  0  0  0  0
   -2.1778    4.9301    9.5355 H   0  0  0  0  0  0  0  0  0  0  0  0
   -2.7933    4.9339   11.2748 H   0  0  0  0  0  0  0  0  0  0  0  0
   -0.4060    4.1048   10.7682 H   0  0  0  0  0  0  0  0  0  0  0  0
   -1.5515    3.1756   11.8855 H   0  0  0  0  0  0  0  0  0  0  0  0
  1  2  1  0
  2  3  1  0
  2  4  1  0
  4  5  2  0
  5  6  1  0
  6  7  2  0
  7  8  1  0
  8  9  2  0
  9 10  1  0
 10 11  1  0
 11 12  2  0
 12 13  1  0
 13 14  2  0
 14 15  1  0
 15 16  1  0
 16 17  1  0
 17 18  1  0
 18 19  1  0
 19 20  1  0
 20 21  1  0
 21 22  1  0
 22 23  3  0
 19 24  1  0
 24 25  1  0
 15  4  1  0
 25 16  1  0
 14  6  1  0
 13  9  1  0
  1 26  1  0
  1 27  1  0
  1 28  1  0
  2 29  1  6
  3 30  1  0
  7 31  1  0
 10 32  1  0
 11 33  1  0
 12 34  1  0
 16 35  1  6
 17 36  1  0
 17 37  1  0
 18 38  1  0
 18 39  1  0
 19 40  1  1
 20 41  1  0
 20 42  1  0
 21 43  1  0
 21 44  1  0
 24 45  1  0
 24 46  1  0
 25 47  1  0
 25 48  1  0
M  END
>  <meeko>  (7) 
{"is_sidechain": [false], "free_energy": -8.206, "intermolecular_energy": -10.134, "internal_energy": -1.067}

$$$$
4ivd_ligand
     RDKit          3D

 48 51  0  0  0  0  0  0  0  0999 V2000
   -1.8310   -3.2590    9.3720 C   0  0  0  0  0  0  0  0  0  0  0  0
   -1.3850   -1.8380    9.6400 C   0  0  1  0  0  0  0  0  0  0  0  0
   -1.6770   -1.4380   10.9690 O   0  0  0  0  0  0  0  0  0  0  0  0
    0.0530   -1.5320    9.3360 C   0  0  0  0  0  0  0  0  0  0  0  0
    0.8760   -2.5220    9.0110 N   0  0  0  0  0  0  0  0  0  0  0  0
    2.1190   -1.9810    8.9070 C   0  0  0  0  0  0  0  0  0  0  0  0
    3.3670   -2.5680    8.6310 C   0  0  0  0  0  0  0  0  0  0  0  0
    4.5310   -1.8520    8.6030 N   0  0  0  0  0  0  0  0  0  0  0  0
    4.3910   -0.5440    8.8760 C   0  0  0  0  0  0  0  0  0  0  0  0
    5.3870    0.3890    8.9400 N   0  0  0  0  0  0  0  0  0  0  0  0
    4.8490    1.6130    9.2770 C   0  0  0  0  0  0  0  0  0  0  0  0
    3.4790    1.4690    9.4230 C   0  0  0  0  0  0  0  0  0  0  0  0
    3.2050    0.1050    9.1490 C   0  0  0  0  0  0  0  0  0  0  0  0
    2.0470   -0.6240    9.1450 C   0  0  0  0  0  0  0  0  0  0  0  0
    0.7320   -0.3050    9.3230 N   0  0  0  0  0  0  0  0  0  0  0  0
    0.1970    1.0530    9.4140 C   0  0  2  0  0  0  0  0  0  0  0  0
    0.1140    1.5720   10.8550 C   0  0  0  0  0  0  0  0  0  0  0  0
   -0.6390    2.8960   10.9070 C   0  0  0  0  0  0  0  0  0  0  0  0
   -2.1030    2.7040   10.5000 C   0  0  1  0  0  0  0  0  0  0  0  0
   -2.9180    4.0190   10.4780 C   0  0  0  0  0  0  0  0  0  0  0  0
   -2.3970    5.1710    9.6150 C   0  0  0  0  0  0  0  0  0  0  0  0
   -3.4180    6.1730    9.2910 C   0  0  0  0  0  0  0  0  0  0  0  0
   -4.2190    6.9660    9.0190 N   0  0  0  0  0  0  0  0  0  0  0  0
   -2.2860    1.8450    9.2320 C   0  0  0  0  0  0  0  0  0  0  0  0
   -0.9980    1.4330    8.5150 C   0  0  0  0  0  0  0  0  0  0  0  0
   -1.9941   -3.7785   10.3278 H   0  0  0  0  0  0  0  0  0  0  0  0
   -2.7685   -3.2467    8.7967 H   0  0  0  0  0  0  0  0  0  0  0  0
   -1.0546   -3.7846    8.7967 H   0  0  0  0  0  0  0  0  0  0  0  0
   -1.9756   -1.2526    8.9199 H   0  0  0  0  0  0  0  0  0  0  0  0
   -2.4450   -0.8420   10.9030 H   0  0  0  0  0  0  0  0  0  0  0  0
    3.4080   -3.6486    8.4292 H   0  0  0  0  0  0  0  0  0  0  0  0
    6.3610    0.1830    8.7770 H   0  0  0  0  0  0  0  0  0  0  0  0
    5.4135    2.5479    9.4081 H   0  0  0  0  0  0  0  0  0  0  0  0
    2.7542    2.2505    9.6950 H   0  0  0  0  0  0  0  0  0  0  0  0
    0.9832    1.6373    8.9136 H   0  0  0  0  0  0  0  0  0  0  0  0
   -0.4127    0.8322   11.4757 H   0  0  0  0  0  0  0  0  0  0  0  0
    1.1346    1.7299   11.2338 H   0  0  0  0  0  0  0  0  0  0  0  0
   -0.5985    3.2941   11.9316 H   0  0  0  0  0  0  0  0  0  0  0  0
   -0.1666    3.5987   10.2049 H   0  0  0  0  0  0  0  0  0  0  0  0
   -2.5450    2.1084   11.3123 H   0  0  0  0  0  0  0  0  0  0  0  0
   -3.9282    3.7722   10.1195 H   0  0  0  0  0  0  0  0  0  0  0  0
   -2.8576    4.3979   11.5089 H   0  0  0  0  0  0  0  0  0  0  0  0
   -1.5806    5.6699   10.1577 H   0  0  0  0  0  0  0  0  0  0  0  0
   -2.0620    4.7336    8.6629 H   0  0  0  0  0  0  0  0  0  0  0  0
   -2.8202    0.9276    9.5200 H   0  0  0  0  0  0  0  0  0  0  0  0
   -2.8355    2.4776    8.5193 H   0  0  0  0  0  0  0  0  0  0  0  0
   -1.2306    0.5636    7.8826 H   0  0  0  0  0  0  0  0  0  0  0  0
   -0.6739    2.3262    7.9608 H   0  0  0  0  0  0  0  0  0  0  0  0
  1  2  1  0
  2  3  1  0
  2  4  1  0
  4  5  2  0
  5  6  1  0
  6  7  2  0
  7  8  1  0
  8  9  2  0
  9 10  1  0
 10 11  1  0
 11 12  2  0
 12 13  1  0
 13 14  2  0
 14 15  1  0
 15 16  1  0
 16 17  1  0
 17 18  1  0
 18 19  1  0
 19 20  1  0
 20 21  1  0
 21 22  1  0
 22 23  3  0
 19 24  1  0
 24 25  1  0
 15  4  1  0
 25 16  1  0
 14  6  1  0
 13  9  1  0
  1 26  1  0
  1 27  1  0
  1 28  1  0
  2 29  1  6
  3 30  1  0
  7 31  1  0
 10 32  1  0
 11 33  1  0
 12 34  1  0
 16 35  1  1
 17 36  1  0
 17 37  1  0
 18 38  1  0
 18 39  1  0
 19 40  1  6
 20 41  1  0
 20 42  1  0
 21 43  1  0
 21 44  1  0
 24 45  1  0
 24 46  1  0
 25 47  1  0
 25 48  1  0
M  END
>  <meeko>  (8) 
{"is_sidechain": [false], "free_energy": -7.988, "intermolecular_energy": -9.993, "internal_energy": -0.932}

$$$$
4ivd_ligand
     RDKit          3D

 48 51  0  0  0  0  0  0  0  0999 V2000
   -2.0020   -0.7040   11.4840 C   0  0  0  0  0  0  0  0  0  0  0  0
   -2.6590   -0.1970   10.2200 C   0  0  1  0  0  0  0  0  0  0  0  0
   -3.9800   -0.6960   10.0780 O   0  0  0  0  0  0  0  0  0  0  0  0
   -2.6700    1.2930   10.0360 C   0  0  0  0  0  0  0  0  0  0  0  0
   -3.7810    1.9730   10.2930 N   0  0  0  0  0  0  0  0  0  0  0  0
   -3.5430    3.2630    9.9320 C   0  0  0  0  0  0  0  0  0  0  0  0
   -4.3730    4.3990    9.9440 C   0  0  0  0  0  0  0  0  0  0  0  0
   -3.9570    5.6230    9.5030 N   0  0  0  0  0  0  0  0  0  0  0  0
   -2.6960    5.6530    9.0400 C   0  0  0  0  0  0  0  0  0  0  0  0
   -2.0420    6.7330    8.5190 N   0  0  0  0  0  0  0  0  0  0  0  0
   -0.7750    6.3590    8.1270 C   0  0  0  0  0  0  0  0  0  0  0  0
   -0.6050    5.0130    8.4090 C   0  0  0  0  0  0  0  0  0  0  0  0
   -1.8210    4.5880    9.0010 C   0  0  0  0  0  0  0  0  0  0  0  0
   -2.2470    3.3770    9.4740 C   0  0  0  0  0  0  0  0  0  0  0  0
   -1.6480    2.1600    9.6230 N   0  0  0  0  0  0  0  0  0  0  0  0
   -0.2230    1.8910    9.4350 C   0  0  2  0  0  0  0  0  0  0  0  0
    0.0540    0.8330    8.3600 C   0  0  0  0  0  0  0  0  0  0  0  0
    1.5280    0.4440    8.3550 C   0  0  0  0  0  0  0  0  0  0  0  0
    1.9090   -0.2530    9.6650 C   0  0  1  0  0  0  0  0  0  0  0  0
    3.4070   -0.6300    9.7520 C   0  0  0  0  0  0  0  0  0  0  0  0
    4.4180    0.2800    9.0490 C   0  0  0  0  0  0  0  0  0  0  0  0
    4.5890    1.5840    9.6990 C   0  0  0  0  0  0  0  0  0  0  0  0
    4.7250    2.6220   10.1970 N   0  0  0  0  0  0  0  0  0  0  0  0
    1.3790    0.4620   10.9240 C   0  0  0  0  0  0  0  0  0  0  0  0
    0.6780    1.8010   10.6840 C   0  0  0  0  0  0  0  0  0  0  0  0
   -2.5290   -0.2973   12.3597 H   0  0  0  0  0  0  0  0  0  0  0  0
   -2.0482   -1.8028   11.5059 H   0  0  0  0  0  0  0  0  0  0  0  0
   -0.9508   -0.3807   11.5059 H   0  0  0  0  0  0  0  0  0  0  0  0
   -2.0076   -0.5922    9.4266 H   0  0  0  0  0  0  0  0  0  0  0  0
   -3.9580   -1.2840    9.3010 H   0  0  0  0  0  0  0  0  0  0  0  0
   -5.4001    4.2972   10.3245 H   0  0  0  0  0  0  0  0  0  0  0  0
   -2.4530    7.6510    8.4330 H   0  0  0  0  0  0  0  0  0  0  0  0
   -0.0242    7.0185    7.6672 H   0  0  0  0  0  0  0  0  0  0  0  0
    0.2881    4.4012    8.2140 H   0  0  0  0  0  0  0  0  0  0  0  0
    0.1337    2.8503    9.0318 H   0  0  0  0  0  0  0  0  0  0  0  0
   -0.5545   -0.0598    8.5666 H   0  0  0  0  0  0  0  0  0  0  0  0
   -0.2049    1.2517    7.3763 H   0  0  0  0  0  0  0  0  0  0  0  0
    1.7183   -0.2391    7.5140 H   0  0  0  0  0  0  0  0  0  0  0  0
    2.1339    1.3561    8.2507 H   0  0  0  0  0  0  0  0  0  0  0  0
    1.3741   -1.2139    9.6398 H   0  0  0  0  0  0  0  0  0  0  0  0
    3.6765   -0.6565   10.8181 H   0  0  0  0  0  0  0  0  0  0  0  0
    3.4811   -1.5885    9.2175 H   0  0  0  0  0  0  0  0  0  0  0  0
    5.3923   -0.2305    9.0329 H   0  0  0  0  0  0  0  0  0  0  0  0
    4.0286    0.4730    8.0385 H   0  0  0  0  0  0  0  0  0  0  0  0
    0.6620   -0.2106   11.4175 H   0  0  0  0  0  0  0  0  0  0  0  0
    2.2661    0.6939   11.5317 H   0  0  0  0  0  0  0  0  0  0  0  0
    0.0525    2.0133   11.5636 H   0  0  0  0  0  0  0  0  0  0  0  0
    1.4866    2.5269   10.5131 H   0  0  0  0  0  0  0  0  0  0  0  0
  1  2  1  0
  2  3  1  0
  2  4  1  0
  4  5  2  0
  5  6  1  0
  6  7  2  0
  7  8  1  0
  8  9  2  0
  9 10  1  0
 10 11  1  0
 11 12  2  0
 12 13  1  0
 13 14  2  0
 14 15  1  0
 15 16  1  0
 16 17  1  0
 17 18  1  0
 18 19  1  0
 19 20  1  0
 20 21  1  0
 21 22  1  0
 22 23  3  0
 19 24  1  0
 24 25  1  0
 15  4  1  0
 25 16  1  0
 14  6  1  0
 13  9  1  0
  1 26  1  0
  1 27  1  0
  1 28  1  0
  2 29  1  6
  3 30  1  0
  7 31  1  0
 10 32  1  0
 11 33  1  0
 12 34  1  0
 16 35  1  1
 17 36  1  0
 17 37  1  0
 18 38  1  0
 18 39  1  0
 19 40  1  1
 20 41  1  0
 20 42  1  0
 21 43  1  0
 21 44  1  0
 24 45  1  0
 24 46  1  0
 25 47  1  0
 25 48  1  0
M  END
>  <meeko>  (9) 
{"is_sidechain": [false], "free_energy": -7.945, "intermolecular_energy": -9.753, "internal_energy": -1.118}

$$$$
