3uuo_ligand
     RDKit          3D

 45 48  0  0  0  0  0  0  0  0999 V2000
   -4.1150   11.4510    5.5780 C   0  0  0  0  0  0  0  0  0  0  0  0
   -3.7720   11.3920    4.1970 O   0  0  0  0  0  0  0  0  0  0  0  0
   -3.1110   10.2730    3.7750 C   0  0  0  0  0  0  0  0  0  0  0  0
   -3.0040    9.0710    4.4550 C   0  0  0  0  0  0  0  0  0  0  0  0
   -2.2840    8.0000    3.8930 C   0  0  0  0  0  0  0  0  0  0  0  0
   -2.1840    6.7070    4.6650 C   0  0  0  0  0  0  0  0  0  0  0  0
   -1.6640    8.1150    2.6420 C   0  0  0  0  0  0  0  0  0  0  0  0
   -0.9950    7.0610    2.1710 N   0  0  0  0  0  0  0  0  0  0  0  0
   -0.4250    7.2260    0.9720 C   0  0  0  0  0  0  0  0  0  0  0  0
    0.2970    6.2720    0.3250 N   0  0  0  0  0  0  0  0  0  0  0  0
    0.7600    6.6680   -0.8690 N   0  0  0  0  0  0  0  0  0  0  0  0
    0.3100    7.9260   -0.9890 C   0  0  0  0  0  0  0  0  0  0  0  0
    0.6590    8.6480   -2.2350 C   0  0  0  0  0  0  0  0  0  0  0  0
   -0.4410    8.3460    0.1560 C   0  0  0  0  0  0  0  0  0  0  0  0
   -1.1450    9.4770    0.6450 C   0  0  0  0  0  0  0  0  0  0  0  0
   -1.2940   10.7130   -0.0220 N   0  0  0  0  0  0  0  0  0  0  0  0
   -0.0950   11.5480   -0.1380 C   0  0  0  0  0  0  0  0  0  0  0  0
   -0.5130   12.9940   -0.4790 C   0  0  0  0  0  0  0  0  0  0  0  0
   -1.4150   13.0070   -1.6960 N   0  0  0  0  0  0  0  0  0  0  0  0
   -2.6370   12.1280   -1.5240 C   0  0  0  0  0  0  0  0  0  0  0  0
   -2.2210   10.6860   -1.1630 C   0  0  0  0  0  0  0  0  0  0  0  0
   -1.7710    9.3350    1.9330 C   0  0  0  0  0  0  0  0  0  0  0  0
   -2.4970   10.3930    2.5300 C   0  0  0  0  0  0  0  0  0  0  0  0
   -3.2122   11.2957    6.1870 H   0  0  0  0  0  0  0  0  0  0  0  0
   -4.5466   12.4366    5.8068 H   0  0  0  0  0  0  0  0  0  0  0  0
   -4.8511   10.6663    5.8068 H   0  0  0  0  0  0  0  0  0  0  0  0
   -3.4835    8.9530    5.4379 H   0  0  0  0  0  0  0  0  0  0  0  0
   -2.2006    6.9218    5.7437 H   0  0  0  0  0  0  0  0  0  0  0  0
   -3.0347    6.0592    4.4070 H   0  0  0  0  0  0  0  0  0  0  0  0
   -1.2438    6.1977    4.4070 H   0  0  0  0  0  0  0  0  0  0  0  0
    0.5010    5.3360    0.6530 H   0  0  0  0  0  0  0  0  0  0  0  0
    1.1249    9.6118   -1.9821 H   0  0  0  0  0  0  0  0  0  0  0  0
    1.3642    8.0432   -2.8240 H   0  0  0  0  0  0  0  0  0  0  0  0
   -0.2530    8.8250   -2.8240 H   0  0  0  0  0  0  0  0  0  0  0  0
    0.4530   11.5389    0.8157 H   0  0  0  0  0  0  0  0  0  0  0  0
    0.5535   11.1539   -0.9343 H   0  0  0  0  0  0  0  0  0  0  0  0
   -1.0516   13.4275    0.3766 H   0  0  0  0  0  0  0  0  0  0  0  0
    0.3887   13.5857   -0.6954 H   0  0  0  0  0  0  0  0  0  0  0  0
   -1.7150   13.9710   -1.8860 H   0  0  0  0  0  0  0  0  0  0  0  0
   -0.8850   12.6930   -2.5180 H   0  0  0  0  0  0  0  0  0  0  0  0
   -3.2653   12.5356   -0.7184 H   0  0  0  0  0  0  0  0  0  0  0  0
   -3.1973   12.1096   -2.4704 H   0  0  0  0  0  0  0  0  0  0  0  0
   -3.1146   10.1030   -0.8954 H   0  0  0  0  0  0  0  0  0  0  0  0
   -1.7243   10.2210   -2.0273 H   0  0  0  0  0  0  0  0  0  0  0  0
   -2.5798   11.3477    1.9899 H   0  0  0  0  0  0  0  0  0  0  0  0
  1  2  1  0
  2  3  1  0
  3  4  2  0
  4  5  1  0
  5  6  1  0
  5  7  2  0
  7  8  1  0
  8  9  2  0
  9 10  1  0
 10 11  1  0
 11 12  2  0
 12 13  1  0
 12 14  1  0
 14 15  2  0
 15 16  1  0
 16 17  1  0
 17 18  1  0
 18 19  1  0
 19 20  1  0
 20 21  1  0
 15 22  1  0
 22 23  2  0
 23  3  1  0
 22  7  1  0
 14  9  1  0
 21 16  1  0
  1 24  1  0
  1 25  1  0
  1 26  1  0
  4 27  1  0
  6 28  1  0
  6 29  1  0
  6 30  1  0
 10 31  1  0
 13 32  1  0
 13 33  1  0
 13 34  1  0
 17 35  1  0
 17 36  1  0
 18 37  1  0
 18 38  1  0
 19 39  1  0
 19 40  1  0
 20 41  1  0
 20 42  1  0
 21 43  1  0
 21 44  1  0
 23 45  1  0
M  CHG  1  19   1
M  END
>  <meeko>  (1) 
{"is_sidechain": [false], "free_energy": -7.824, "intermolecular_energy": -8.739, "internal_energy": -0.51}

$$$$
3uuo_ligand
     RDKit          3D

 45 48  0  0  0  0  0  0  0  0999 V2000
   -3.2750    5.6710    5.3160 C   0  0  0  0  0  0  0  0  0  0  0  0
   -2.2200    6.4990    4.8380 O   0  0  0  0  0  0  0  0  0  0  0  0
   -2.5580    7.7680    4.4600 C   0  0  0  0  0  0  0  0  0  0  0  0
   -3.0660    8.7650    5.2760 C   0  0  0  0  0  0  0  0  0  0  0  0
   -3.3710   10.0310    4.7420 C   0  0  0  0  0  0  0  0  0  0  0  0
   -3.9280   11.0920    5.6610 C   0  0  0  0  0  0  0  0  0  0  0  0
   -3.1700   10.3190    3.3860 C   0  0  0  0  0  0  0  0  0  0  0  0
   -3.4850   11.5390    2.9470 N   0  0  0  0  0  0  0  0  0  0  0  0
   -3.2700   11.7580    1.6450 C   0  0  0  0  0  0  0  0  0  0  0  0
   -3.5260   12.9340    1.0100 N   0  0  0  0  0  0  0  0  0  0  0  0
   -3.2200   12.9160   -0.2960 N   0  0  0  0  0  0  0  0  0  0  0  0
   -2.7450   11.6780   -0.4990 C   0  0  0  0  0  0  0  0  0  0  0  0
   -2.3060   11.3440   -1.8740 C   0  0  0  0  0  0  0  0  0  0  0  0
   -2.7630   10.8860    0.6950 C   0  0  0  0  0  0  0  0  0  0  0  0
   -2.4270    9.5840    1.1450 C   0  0  0  0  0  0  0  0  0  0  0  0
   -1.8910    8.5450    0.3530 N   0  0  0  0  0  0  0  0  0  0  0  0
   -2.7880    7.9410   -0.6380 C   0  0  0  0  0  0  0  0  0  0  0  0
   -2.2100    6.5820   -1.0860 C   0  0  0  0  0  0  0  0  0  0  0  0
   -0.7760    6.7470   -1.5450 N   0  0  0  0  0  0  0  0  0  0  0  0
    0.1060    7.3750   -0.4850 C   0  0  0  0  0  0  0  0  0  0  0  0
   -0.4800    8.7240   -0.0220 C   0  0  0  0  0  0  0  0  0  0  0  0
   -2.6450    9.3110    2.5420 C   0  0  0  0  0  0  0  0  0  0  0  0
   -2.3550    8.0480    3.1100 C   0  0  0  0  0  0  0  0  0  0  0  0
   -3.2728    5.6727    6.4160 H   0  0  0  0  0  0  0  0  0  0  0  0
   -4.2382    6.0568    4.9507 H   0  0  0  0  0  0  0  0  0  0  0  0
   -3.1291    4.6437    4.9507 H   0  0  0  0  0  0  0  0  0  0  0  0
   -3.2317    8.5668    6.3452 H   0  0  0  0  0  0  0  0  0  0  0  0
   -3.7699   10.7908    6.7071 H   0  0  0  0  0  0  0  0  0  0  0  0
   -3.4147   12.0465    5.4727 H   0  0  0  0  0  0  0  0  0  0  0  0
   -5.0051   11.2115    5.4727 H   0  0  0  0  0  0  0  0  0  0  0  0
   -3.9080   13.7770    1.4210 H   0  0  0  0  0  0  0  0  0  0  0  0
   -1.4313   10.6785   -1.8282 H   0  0  0  0  0  0  0  0  0  0  0  0
   -3.1242   10.8380   -2.4074 H   0  0  0  0  0  0  0  0  0  0  0  0
   -2.0365   12.2675   -2.4074 H   0  0  0  0  0  0  0  0  0  0  0  0
   -3.7811    7.7885   -0.1903 H   0  0  0  0  0  0  0  0  0  0  0  0
   -2.8794    8.6080   -1.5080 H   0  0  0  0  0  0  0  0  0  0  0  0
   -2.2421    5.8778   -0.2416 H   0  0  0  0  0  0  0  0  0  0  0  0
   -2.8113    6.1952   -1.9219 H   0  0  0  0  0  0  0  0  0  0  0  0
   -0.3940    5.8280   -1.8030 H   0  0  0  0  0  0  0  0  0  0  0  0
   -0.7520    7.3270   -2.3930 H   0  0  0  0  0  0  0  0  0  0  0  0
    0.1748    6.6955    0.3773 H   0  0  0  0  0  0  0  0  0  0  0  0
    1.1046    7.5496   -0.9119 H   0  0  0  0  0  0  0  0  0  0  0  0
    0.0863    9.0905    0.8469 H   0  0  0  0  0  0  0  0  0  0  0  0
   -0.4091    9.4542   -0.8416 H   0  0  0  0  0  0  0  0  0  0  0  0
   -1.9536    7.2561    2.4606 H   0  0  0  0  0  0  0  0  0  0  0  0
  1  2  1  0
  2  3  1  0
  3  4  2  0
  4  5  1  0
  5  6  1  0
  5  7  2  0
  7  8  1  0
  8  9  2  0
  9 10  1  0
 10 11  1  0
 11 12  2  0
 12 13  1  0
 12 14  1  0
 14 15  2  0
 15 16  1  0
 16 17  1  0
 17 18  1  0
 18 19  1  0
 19 20  1  0
 20 21  1  0
 15 22  1  0
 22 23  2  0
 23  3  1  0
 22  7  1  0
 14  9  1  0
 21 16  1  0
  1 24  1  0
  1 25  1  0
  1 26  1  0
  4 27  1  0
  6 28  1  0
  6 29  1  0
  6 30  1  0
 10 31  1  0
 13 32  1  0
 13 33  1  0
 13 34  1  0
 17 35  1  0
 17 36  1  0
 18 37  1  0
 18 38  1  0
 19 39  1  0
 19 40  1  0
 20 41  1  0
 20 42  1  0
 21 43  1  0
 21 44  1  0
 23 45  1  0
M  CHG  1  19   1
M  END
>  <meeko>  (2) 
{"is_sidechain": [false], "free_energy": -7.796, "intermolecular_energy": -8.714, "internal_energy": -0.503}

$$$$
3uuo_ligand
     RDKit          3D

 45 48  0  0  0  0  0  0  0  0999 V2000
   -4.8130   12.3630    1.8190 C   0  0  0  0  0  0  0  0  0  0  0  0
   -3.7580   12.0780    0.9060 O   0  0  0  0  0  0  0  0  0  0  0  0
   -3.0820   10.9050    1.0950 C   0  0  0  0  0  0  0  0  0  0  0  0
   -3.1450   10.0860    2.2090 C   0  0  0  0  0  0  0  0  0  0  0  0
   -2.3850    8.9030    2.2630 C   0  0  0  0  0  0  0  0  0  0  0  0
   -2.4750    8.0360    3.4960 C   0  0  0  0  0  0  0  0  0  0  0  0
   -1.5540    8.5210    1.2020 C   0  0  0  0  0  0  0  0  0  0  0  0
   -0.8580    7.3870    1.3220 N   0  0  0  0  0  0  0  0  0  0  0  0
   -0.0840    7.0720    0.2780 C   0  0  0  0  0  0  0  0  0  0  0  0
    0.6980    5.9600    0.2090 N   0  0  0  0  0  0  0  0  0  0  0  0
    1.3780    5.8540   -0.9430 N   0  0  0  0  0  0  0  0  0  0  0  0
    1.0080    6.9400   -1.6370 C   0  0  0  0  0  0  0  0  0  0  0  0
    1.5970    7.1070   -2.9870 C   0  0  0  0  0  0  0  0  0  0  0  0
    0.0890    7.7640   -0.9100 C   0  0  0  0  0  0  0  0  0  0  0  0
   -0.6400    8.9720   -1.0510 C   0  0  0  0  0  0  0  0  0  0  0  0
   -0.6190    9.8270   -2.1750 N   0  0  0  0  0  0  0  0  0  0  0  0
    0.5990   10.6160   -2.3810 C   0  0  0  0  0  0  0  0  0  0  0  0
    0.2960   11.7770   -3.3520 C   0  0  0  0  0  0  0  0  0  0  0  0
   -0.3400   11.2480   -4.6210 N   0  0  0  0  0  0  0  0  0  0  0  0
   -1.5940   10.4410   -4.3510 C   0  0  0  0  0  0  0  0  0  0  0  0
   -1.2970    9.2920   -3.3660 C   0  0  0  0  0  0  0  0  0  0  0  0
   -1.4850    9.3450    0.0540 C   0  0  0  0  0  0  0  0  0  0  0  0
   -2.2570   10.5300    0.0350 C   0  0  0  0  0  0  0  0  0  0  0  0
   -4.4427   12.2630    2.8500 H   0  0  0  0  0  0  0  0  0  0  0  0
   -5.1714   13.3902    1.6561 H   0  0  0  0  0  0  0  0  0  0  0  0
   -5.6398   11.6560    1.6561 H   0  0  0  0  0  0  0  0  0  0  0  0
   -3.7916   10.3609    3.0553 H   0  0  0  0  0  0  0  0  0  0  0  0
   -2.4094    8.6678    4.3941 H   0  0  0  0  0  0  0  0  0  0  0  0
   -3.4339    7.4970    3.4961 H   0  0  0  0  0  0  0  0  0  0  0  0
   -1.6472    7.3116    3.4961 H   0  0  0  0  0  0  0  0  0  0  0  0
    0.8030    5.2450    0.9170 H   0  0  0  0  0  0  0  0  0  0  0  0
    2.6514    7.4059   -2.8926 H   0  0  0  0  0  0  0  0  0  0  0  0
    1.5333    6.1554   -3.5351 H   0  0  0  0  0  0  0  0  0  0  0  0
    1.0434    7.8836   -3.5351 H   0  0  0  0  0  0  0  0  0  0  0  0
    0.9410   11.0223   -1.4177 H   0  0  0  0  0  0  0  0  0  0  0  0
    1.3857    9.9755   -2.8062 H   0  0  0  0  0  0  0  0  0  0  0  0
   -0.3935   12.4844   -2.8680 H   0  0  0  0  0  0  0  0  0  0  0  0
    1.2377   12.2845   -3.6082 H   0  0  0  0  0  0  0  0  0  0  0  0
   -0.5710   12.0370   -5.2380 H   0  0  0  0  0  0  0  0  0  0  0  0
    0.3370   10.6640   -5.1250 H   0  0  0  0  0  0  0  0  0  0  0  0
   -2.3616   11.0993   -3.9180 H   0  0  0  0  0  0  0  0  0  0  0  0
   -1.9516   10.0126   -5.2989 H   0  0  0  0  0  0  0  0  0  0  0  0
   -2.2410    8.8135   -3.0661 H   0  0  0  0  0  0  0  0  0  0  0  0
   -0.6476    8.5504   -3.8543 H   0  0  0  0  0  0  0  0  0  0  0  0
   -2.2046   11.1810   -0.8501 H   0  0  0  0  0  0  0  0  0  0  0  0
  1  2  1  0
  2  3  1  0
  3  4  2  0
  4  5  1  0
  5  6  1  0
  5  7  2  0
  7  8  1  0
  8  9  2  0
  9 10  1  0
 10 11  1  0
 11 12  2  0
 12 13  1  0
 12 14  1  0
 14 15  2  0
 15 16  1  0
 16 17  1  0
 17 18  1  0
 18 19  1  0
 19 20  1  0
 20 21  1  0
 15 22  1  0
 22 23  2  0
 23  3  1  0
 22  7  1  0
 14  9  1  0
 21 16  1  0
  1 24  1  0
  1 25  1  0
  1 26  1  0
  4 27  1  0
  6 28  1  0
  6 29  1  0
  6 30  1  0
 10 31  1  0
 13 32  1  0
 13 33  1  0
 13 34  1  0
 17 35  1  0
 17 36  1  0
 18 37  1  0
 18 38  1  0
 19 39  1  0
 19 40  1  0
 20 41  1  0
 20 42  1  0
 21 43  1  0
 21 44  1  0
 23 45  1  0
M  CHG  1  19   1
M  END
>  <meeko>  (3) 
{"is_sidechain": [false], "free_energy": -7.307, "intermolecular_energy": -8.163, "internal_energy": -0.508}

$$$$
3uuo_ligand
     RDKit          3D

 45 48  0  0  0  0  0  0  0  0999 V2000
   -5.1920   13.1470   -2.1220 C   0  0  0  0  0  0  0  0  0  0  0  0
   -4.1030   12.4920   -1.4780 O   0  0  0  0  0  0  0  0  0  0  0  0
   -2.9580   12.3400   -2.2090 C   0  0  0  0  0  0  0  0  0  0  0  0
   -2.4590   13.2210   -3.1540 C   0  0  0  0  0  0  0  0  0  0  0  0
   -1.2610   12.9280   -3.8330 C   0  0  0  0  0  0  0  0  0  0  0  0
   -0.7490   13.9080   -4.8600 C   0  0  0  0  0  0  0  0  0  0  0  0
   -0.5450   11.7520   -3.5740 C   0  0  0  0  0  0  0  0  0  0  0  0
    0.5810   11.5360   -4.2570 N   0  0  0  0  0  0  0  0  0  0  0  0
    1.2240   10.4000   -3.9670 C   0  0  0  0  0  0  0  0  0  0  0  0
    2.3860   10.0020   -4.5540 N   0  0  0  0  0  0  0  0  0  0  0  0
    2.8460    8.8300   -4.0920 N   0  0  0  0  0  0  0  0  0  0  0  0
    1.9410    8.4690   -3.1690 C   0  0  0  0  0  0  0  0  0  0  0  0
    2.1790    7.1910   -2.4590 C   0  0  0  0  0  0  0  0  0  0  0  0
    0.8760    9.4200   -3.0510 C   0  0  0  0  0  0  0  0  0  0  0  0
   -0.3210    9.6330   -2.3200 C   0  0  0  0  0  0  0  0  0  0  0  0
   -0.8560    8.7720   -1.3360 N   0  0  0  0  0  0  0  0  0  0  0  0
   -1.4800    7.5340   -1.8130 C   0  0  0  0  0  0  0  0  0  0  0  0
   -2.3710    6.9510   -0.6960 C   0  0  0  0  0  0  0  0  0  0  0  0
   -1.5810    6.8100    0.5880 N   0  0  0  0  0  0  0  0  0  0  0  0
   -0.9580    8.1170    1.0340 C   0  0  0  0  0  0  0  0  0  0  0  0
   -0.0810    8.7110   -0.0870 C   0  0  0  0  0  0  0  0  0  0  0  0
   -1.0400   10.8470   -2.6050 C   0  0  0  0  0  0  0  0  0  0  0  0
   -2.2500   11.1690   -1.9460 C   0  0  0  0  0  0  0  0  0  0  0  0
   -5.8740   13.5572   -1.3627 H   0  0  0  0  0  0  0  0  0  0  0  0
   -4.8085   13.9644   -2.7503 H   0  0  0  0  0  0  0  0  0  0  0  0
   -5.7343   12.4251   -2.7503 H   0  0  0  0  0  0  0  0  0  0  0  0
   -3.0005   14.1527   -3.3748 H   0  0  0  0  0  0  0  0  0  0  0  0
   -0.2978   14.7717   -4.3497 H   0  0  0  0  0  0  0  0  0  0  0  0
    0.0080   13.4174   -5.4895 H   0  0  0  0  0  0  0  0  0  0  0  0
   -1.5841   14.2492   -5.4895 H   0  0  0  0  0  0  0  0  0  0  0  0
    2.9040   10.4920   -5.2710 H   0  0  0  0  0  0  0  0  0  0  0  0
    2.1469    7.3634   -1.3731 H   0  0  0  0  0  0  0  0  0  0  0  0
    1.4005    6.4659   -2.7383 H   0  0  0  0  0  0  0  0  0  0  0  0
    3.1664    6.7947   -2.7383 H   0  0  0  0  0  0  0  0  0  0  0  0
   -2.0950    7.7498   -2.6991 H   0  0  0  0  0  0  0  0  0  0  0  0
   -0.6996    6.8064   -2.0805 H   0  0  0  0  0  0  0  0  0  0  0  0
   -3.2245    7.6235   -0.5247 H   0  0  0  0  0  0  0  0  0  0  0  0
   -2.7291    5.9582   -1.0061 H   0  0  0  0  0  0  0  0  0  0  0  0
   -2.1990    6.4580    1.3300 H   0  0  0  0  0  0  0  0  0  0  0  0
   -0.8420    6.1090    0.4590 H   0  0  0  0  0  0  0  0  0  0  0  0
   -1.7564    8.8309    1.2850 H   0  0  0  0  0  0  0  0  0  0  0  0
   -0.3269    7.9266    1.9146 H   0  0  0  0  0  0  0  0  0  0  0  0
    0.2388    9.7248    0.1959 H   0  0  0  0  0  0  0  0  0  0  0  0
    0.8043    8.0752   -0.2356 H   0  0  0  0  0  0  0  0  0  0  0  0
   -2.6471   10.4679   -1.1972 H   0  0  0  0  0  0  0  0  0  0  0  0
  1  2  1  0
  2  3  1  0
  3  4  2  0
  4  5  1  0
  5  6  1  0
  5  7  2  0
  7  8  1  0
  8  9  2  0
  9 10  1  0
 10 11  1  0
 11 12  2  0
 12 13  1  0
 12 14  1  0
 14 15  2  0
 15 16  1  0
 16 17  1  0
 17 18  1  0
 18 19  1  0
 19 20  1  0
 20 21  1  0
 15 22  1  0
 22 23  2  0
 23  3  1  0
 22  7  1  0
 14  9  1  0
 21 16  1  0
  1 24  1  0
  1 25  1  0
  1 26  1  0
  4 27  1  0
  6 28  1  0
  6 29  1  0
  6 30  1  0
 10 31  1  0
 13 32  1  0
 13 33  1  0
 13 34  1  0
 17 35  1  0
 17 36  1  0
 18 37  1  0
 18 38  1  0
 19 39  1  0
 19 40  1  0
 20 41  1  0
 20 42  1  0
 21 43  1  0
 21 44  1  0
 23 45  1  0
M  CHG  1  19   1
M  END
>  <meeko>  (4) 
{"is_sidechain": [false], "free_energy": -6.996, "intermolecular_energy": -7.828, "internal_energy": -0.496}

$$$$
3uuo_ligand
     RDKit          3D

 45 48  0  0  0  0  0  0  0  0999 V2000
    3.3330   10.4800   -4.2290 C   0  0  0  0  0  0  0  0  0  0  0  0
    1.9690   10.0980   -4.3780 O   0  0  0  0  0  0  0  0  0  0  0  0
    1.4300    9.3400   -3.3770 C   0  0  0  0  0  0  0  0  0  0  0  0
    1.7420    8.0240   -3.0780 C   0  0  0  0  0  0  0  0  0  0  0  0
    1.1000    7.3670   -2.0120 C   0  0  0  0  0  0  0  0  0  0  0  0
    1.4610    5.9310   -1.7190 C   0  0  0  0  0  0  0  0  0  0  0  0
    0.1390    8.0180   -1.2280 C   0  0  0  0  0  0  0  0  0  0  0  0
   -0.4340    7.3330   -0.2350 N   0  0  0  0  0  0  0  0  0  0  0  0
   -1.3410    8.0050    0.4820 C   0  0  0  0  0  0  0  0  0  0  0  0
   -2.0320    7.4840    1.5320 N   0  0  0  0  0  0  0  0  0  0  0  0
   -2.8810    8.3530    2.1000 N   0  0  0  0  0  0  0  0  0  0  0  0
   -2.7200    9.4760    1.3840 C   0  0  0  0  0  0  0  0  0  0  0  0
   -3.5350   10.6480    1.7820 C   0  0  0  0  0  0  0  0  0  0  0  0
   -1.7630    9.3170    0.3300 C   0  0  0  0  0  0  0  0  0  0  0  0
   -1.1670   10.0560   -0.7240 C   0  0  0  0  0  0  0  0  0  0  0  0
   -1.4420   11.4030   -1.0510 N   0  0  0  0  0  0  0  0  0  0  0  0
   -2.7500   11.6810   -1.6510 C   0  0  0  0  0  0  0  0  0  0  0  0
   -2.7140   13.0670   -2.3300 C   0  0  0  0  0  0  0  0  0  0  0  0
   -2.2260   14.1180   -1.3540 N   0  0  0  0  0  0  0  0  0  0  0  0
   -0.8720   13.7800   -0.7640 C   0  0  0  0  0  0  0  0  0  0  0  0
   -0.9010   12.3870   -0.1010 C   0  0  0  0  0  0  0  0  0  0  0  0
   -0.1850    9.3650   -1.5170 C   0  0  0  0  0  0  0  0  0  0  0  0
    0.4760    9.9930   -2.5990 C   0  0  0  0  0  0  0  0  0  0  0  0
    3.5797   10.5491   -3.1592 H   0  0  0  0  0  0  0  0  0  0  0  0
    3.9786    9.7281   -4.7063 H   0  0  0  0  0  0  0  0  0  0  0  0
    3.4942   11.4578   -4.7063 H   0  0  0  0  0  0  0  0  0  0  0  0
    2.4949    7.4902   -3.6765 H   0  0  0  0  0  0  0  0  0  0  0  0
    1.4996    5.7774   -0.6305 H   0  0  0  0  0  0  0  0  0  0  0  0
    0.7022    5.2656   -2.1565 H   0  0  0  0  0  0  0  0  0  0  0  0
    2.4443    5.7035   -2.1565 H   0  0  0  0  0  0  0  0  0  0  0  0
   -1.9600    6.5440    1.9010 H   0  0  0  0  0  0  0  0  0  0  0  0
   -3.5776   10.7093    2.8795 H   0  0  0  0  0  0  0  0  0  0  0  0
   -3.0788   11.5651    1.3810 H   0  0  0  0  0  0  0  0  0  0  0  0
   -4.5535   10.5395    1.3810 H   0  0  0  0  0  0  0  0  0  0  0  0
   -2.9820   10.9102   -2.4007 H   0  0  0  0  0  0  0  0  0  0  0  0
   -3.5239   11.6729   -0.8693 H   0  0  0  0  0  0  0  0  0  0  0  0
   -2.0340   13.0304   -3.1939 H   0  0  0  0  0  0  0  0  0  0  0  0
   -3.7296   13.3299   -2.6608 H   0  0  0  0  0  0  0  0  0  0  0  0
   -2.1700   15.0250   -1.8330 H   0  0  0  0  0  0  0  0  0  0  0  0
   -2.9100   14.2230   -0.5950 H   0  0  0  0  0  0  0  0  0  0  0  0
   -0.1177   13.7837   -1.5646 H   0  0  0  0  0  0  0  0  0  0  0  0
   -0.6203   14.5309   -0.0006 H   0  0  0  0  0  0  0  0  0  0  0  0
    0.1203   12.0963    0.1862 H   0  0  0  0  0  0  0  0  0  0  0  0
   -1.5384   12.4205    0.7949 H   0  0  0  0  0  0  0  0  0  0  0  0
    0.2269   11.0380   -2.8354 H   0  0  0  0  0  0  0  0  0  0  0  0
  1  2  1  0
  2  3  1  0
  3  4  2  0
  4  5  1  0
  5  6  1  0
  5  7  2  0
  7  8  1  0
  8  9  2  0
  9 10  1  0
 10 11  1  0
 11 12  2  0
 12 13  1  0
 12 14  1  0
 14 15  2  0
 15 16  1  0
 16 17  1  0
 17 18  1  0
 18 19  1  0
 19 20  1  0
 20 21  1  0
 15 22  1  0
 22 23  2  0
 23  3  1  0
 22  7  1  0
 14  9  1  0
 21 16  1  0
  1 24  1  0
  1 25  1  0
  1 26  1  0
  4 27  1  0
  6 28  1  0
  6 29  1  0
  6 30  1  0
 10 31  1  0
 13 32  1  0
 13 33  1  0
 13 34  1  0
 17 35  1  0
 17 36  1  0
 18 37  1  0
 18 38  1  0
 19 39  1  0
 19 40  1  0
 20 41  1  0
 20 42  1  0
 21 43  1  0
 21 44  1  0
 23 45  1  0
M  CHG  1  19   1
M  END
>  <meeko>  (5) 
{"is_sidechain": [false], "free_energy": -6.678, "intermolecular_energy": -7.463, "internal_energy": -0.505}

$$$$
3uuo_ligand
     RDKit          3D

 45 48  0  0  0  0  0  0  0  0999 V2000
   -0.6960    6.3940    1.3830 C   0  0  0  0  0  0  0  0  0  0  0  0
   -1.3120    7.1470    2.4240 O   0  0  0  0  0  0  0  0  0  0  0  0
   -1.7530    8.3990    2.0980 C   0  0  0  0  0  0  0  0  0  0  0  0
   -2.5540    9.2200    2.8750 C   0  0  0  0  0  0  0  0  0  0  0  0
   -2.9330   10.4910    2.4040 C   0  0  0  0  0  0  0  0  0  0  0  0
   -3.8100   11.3570    3.2750 C   0  0  0  0  0  0  0  0  0  0  0  0
   -2.5140   10.9590    1.1520 C   0  0  0  0  0  0  0  0  0  0  0  0
   -2.9150   12.1730    0.7660 N   0  0  0  0  0  0  0  0  0  0  0  0
   -2.4830   12.5690   -0.4360 C   0  0  0  0  0  0  0  0  0  0  0  0
   -2.7810   13.7700   -1.0030 N   0  0  0  0  0  0  0  0  0  0  0  0
   -2.2250   13.9450   -2.2110 N   0  0  0  0  0  0  0  0  0  0  0  0
   -1.5410   12.8100   -2.4190 C   0  0  0  0  0  0  0  0  0  0  0  0
   -0.7960   12.6990   -3.6950 C   0  0  0  0  0  0  0  0  0  0  0  0
   -1.6750   11.8860   -1.3320 C   0  0  0  0  0  0  0  0  0  0  0  0
   -1.2450   10.5940   -0.9390 C   0  0  0  0  0  0  0  0  0  0  0  0
   -0.4160    9.7320   -1.6900 N   0  0  0  0  0  0  0  0  0  0  0  0
   -1.0050    9.1290   -2.8890 C   0  0  0  0  0  0  0  0  0  0  0  0
   -0.1520    7.9190   -3.3230 C   0  0  0  0  0  0  0  0  0  0  0  0
    1.3010    8.3250   -3.4650 N   0  0  0  0  0  0  0  0  0  0  0  0
    1.8590    8.9410   -2.1990 C   0  0  0  0  0  0  0  0  0  0  0  0
    0.9960   10.1390   -1.7520 C   0  0  0  0  0  0  0  0  0  0  0  0
   -1.6900   10.1330    0.3510 C   0  0  0  0  0  0  0  0  0  0  0  0
   -1.3330    8.8590    0.8520 C   0  0  0  0  0  0  0  0  0  0  0  0
   -0.0577    5.6138    1.8232 H   0  0  0  0  0  0  0  0  0  0  0  0
   -1.4725    5.9248    0.7610 H   0  0  0  0  0  0  0  0  0  0  0  0
   -0.0822    7.0621    0.7610 H   0  0  0  0  0  0  0  0  0  0  0  0
   -2.8949    8.8774    3.8632 H   0  0  0  0  0  0  0  0  0  0  0  0
   -3.5972   11.1469    4.3336 H   0  0  0  0  0  0  0  0  0  0  0  0
   -3.6049   12.4167    3.0631 H   0  0  0  0  0  0  0  0  0  0  0  0
   -4.8671   11.1386    3.0631 H   0  0  0  0  0  0  0  0  0  0  0  0
   -3.3560   14.5030   -0.6090 H   0  0  0  0  0  0  0  0  0  0  0  0
    0.2717   12.5399   -3.4836 H   0  0  0  0  0  0  0  0  0  0  0  0
   -1.1857   11.8490   -4.2744 H   0  0  0  0  0  0  0  0  0  0  0  0
   -0.9210   13.6257   -4.2744 H   0  0  0  0  0  0  0  0  0  0  0  0
   -2.0295    8.7956   -2.6672 H   0  0  0  0  0  0  0  0  0  0  0  0
   -1.0307    9.8715   -3.7002 H   0  0  0  0  0  0  0  0  0  0  0  0
   -0.2350    7.1259   -2.5653 H   0  0  0  0  0  0  0  0  0  0  0  0
   -0.5180    7.5523   -4.2934 H   0  0  0  0  0  0  0  0  0  0  0  0
    1.8610    7.5000   -3.7160 H   0  0  0  0  0  0  0  0  0  0  0  0
    1.3950    8.9940   -4.2380 H   0  0  0  0  0  0  0  0  0  0  0  0
    1.8668    8.1835   -1.4014 H   0  0  0  0  0  0  0  0  0  0  0  0
    2.8814    9.2950   -2.3976 H   0  0  0  0  0  0  0  0  0  0  0  0
    1.3241   10.4761   -0.7577 H   0  0  0  0  0  0  0  0  0  0  0  0
    1.1086   10.9609   -2.4743 H   0  0  0  0  0  0  0  0  0  0  0  0
   -0.6992    8.2064    0.2337 H   0  0  0  0  0  0  0  0  0  0  0  0
  1  2  1  0
  2  3  1  0
  3  4  2  0
  4  5  1  0
  5  6  1  0
  5  7  2  0
  7  8  1  0
  8  9  2  0
  9 10  1  0
 10 11  1  0
 11 12  2  0
 12 13  1  0
 12 14  1  0
 14 15  2  0
 15 16  1  0
 16 17  1  0
 17 18  1  0
 18 19  1  0
 19 20  1  0
 20 21  1  0
 15 22  1  0
 22 23  2  0
 23  3  1  0
 22  7  1  0
 14  9  1  0
 21 16  1  0
  1 24  1  0
  1 25  1  0
  1 26  1  0
  4 27  1  0
  6 28  1  0
  6 29  1  0
  6 30  1  0
 10 31  1  0
 13 32  1  0
 13 33  1  0
 13 34  1  0
 17 35  1  0
 17 36  1  0
 18 37  1  0
 18 38  1  0
 19 39  1  0
 19 40  1  0
 20 41  1  0
 20 42  1  0
 21 43  1  0
 21 44  1  0
 23 45  1  0
M  CHG  1  19   1
M  END
>  <meeko>  (6) 
{"is_sidechain": [false], "free_energy": -6.639, "intermolecular_energy": -7.408, "internal_energy": -0.517}

$$$$
3uuo_ligand
     RDKit          3D

 45 48  0  0  0  0  0  0  0  0999 V2000
    1.4520    5.2240   -2.9520 C   0  0  0  0  0  0  0  0  0  0  0  0
    1.7620    6.1060   -1.8780 O   0  0  0  0  0  0  0  0  0  0  0  0
    1.5670    7.4400   -2.1020 C   0  0  0  0  0  0  0  0  0  0  0  0
    2.1810    8.2120   -3.0740 C   0  0  0  0  0  0  0  0  0  0  0  0
    1.8810    9.5830   -3.1850 C   0  0  0  0  0  0  0  0  0  0  0  0
    2.5740   10.3950   -4.2520 C   0  0  0  0  0  0  0  0  0  0  0  0
    0.9600   10.1990   -2.3280 C   0  0  0  0  0  0  0  0  0  0  0  0
    0.7250   11.5040   -2.4870 N   0  0  0  0  0  0  0  0  0  0  0  0
   -0.1640   12.0380   -1.6430 C   0  0  0  0  0  0  0  0  0  0  0  0
   -0.5380   13.3470   -1.6460 N   0  0  0  0  0  0  0  0  0  0  0  0
   -1.4520   13.6450   -0.7110 N   0  0  0  0  0  0  0  0  0  0  0  0
   -1.6730   12.4760   -0.0910 C   0  0  0  0  0  0  0  0  0  0  0  0
   -2.6630   12.4780    1.0110 C   0  0  0  0  0  0  0  0  0  0  0  0
   -0.8740   11.4150   -0.6290 C   0  0  0  0  0  0  0  0  0  0  0  0
   -0.6330   10.0300   -0.4440 C   0  0  0  0  0  0  0  0  0  0  0  0
   -1.2490    9.2020    0.5200 N   0  0  0  0  0  0  0  0  0  0  0  0
   -0.8350    9.3920    1.9130 C   0  0  0  0  0  0  0  0  0  0  0  0
   -1.2540    8.1580    2.7410 C   0  0  0  0  0  0  0  0  0  0  0  0
   -2.7290    7.8740    2.5510 N   0  0  0  0  0  0  0  0  0  0  0  0
   -3.1020    7.6870    1.0950 C   0  0  0  0  0  0  0  0  0  0  0  0
   -2.6680    8.9110    0.2620 C   0  0  0  0  0  0  0  0  0  0  0  0
    0.3200    9.4200   -1.3350 C   0  0  0  0  0  0  0  0  0  0  0  0
    0.6490    8.0470   -1.2470 C   0  0  0  0  0  0  0  0  0  0  0  0
    1.1128    4.2589   -2.5476 H   0  0  0  0  0  0  0  0  0  0  0  0
    0.6545    5.6637   -3.5690 H   0  0  0  0  0  0  0  0  0  0  0  0
    2.3492    5.0681   -3.5690 H   0  0  0  0  0  0  0  0  0  0  0  0
    2.9058    7.7523   -3.7619 H   0  0  0  0  0  0  0  0  0  0  0  0
    3.2183   11.1499   -3.7777 H   0  0  0  0  0  0  0  0  0  0  0  0
    3.1876    9.7304   -4.8780 H   0  0  0  0  0  0  0  0  0  0  0  0
    1.8212   10.8965   -4.8780 H   0  0  0  0  0  0  0  0  0  0  0  0
   -0.2000   14.0740   -2.2630 H   0  0  0  0  0  0  0  0  0  0  0  0
   -2.1366   12.4769    1.9768 H   0  0  0  0  0  0  0  0  0  0  0  0
   -3.2920   13.3774    0.9372 H   0  0  0  0  0  0  0  0  0  0  0  0
   -3.2956   11.5811    0.9372 H   0  0  0  0  0  0  0  0  0  0  0  0
    0.2575    9.5119    1.9589 H   0  0  0  0  0  0  0  0  0  0  0  0
   -1.3173   10.2921    2.3220 H   0  0  0  0  0  0  0  0  0  0  0  0
   -0.6710    7.2852    2.4119 H   0  0  0  0  0  0  0  0  0  0  0  0
   -1.0625    8.3594    3.8053 H   0  0  0  0  0  0  0  0  0  0  0  0
   -2.9820    7.0280    3.0770 H   0  0  0  0  0  0  0  0  0  0  0  0
   -3.2800    8.6450    2.9460 H   0  0  0  0  0  0  0  0  0  0  0  0
   -2.6006    6.7886    0.7058 H   0  0  0  0  0  0  0  0  0  0  0  0
   -4.1938    7.5759    1.0199 H   0  0  0  0  0  0  0  0  0  0  0  0
   -2.8095    8.6955   -0.8074 H   0  0  0  0  0  0  0  0  0  0  0  0
   -3.2780    9.7817    0.5446 H   0  0  0  0  0  0  0  0  0  0  0  0
    0.1615    7.4349   -0.4739 H   0  0  0  0  0  0  0  0  0  0  0  0
  1  2  1  0
  2  3  1  0
  3  4  2  0
  4  5  1  0
  5  6  1  0
  5  7  2  0
  7  8  1  0
  8  9  2  0
  9 10  1  0
 10 11  1  0
 11 12  2  0
 12 13  1  0
 12 14  1  0
 14 15  2  0
 15 16  1  0
 16 17  1  0
 17 18  1  0
 18 19  1  0
 19 20  1  0
 20 21  1  0
 15 22  1  0
 22 23  2  0
 23  3  1  0
 22  7  1  0
 14  9  1  0
 21 16  1  0
  1 24  1  0
  1 25  1  0
  1 26  1  0
  4 27  1  0
  6 28  1  0
  6 29  1  0
  6 30  1  0
 10 31  1  0
 13 32  1  0
 13 33  1  0
 13 34  1  0
 17 35  1  0
 17 36  1  0
 18 37  1  0
 18 38  1  0
 19 39  1  0
 19 40  1  0
 20 41  1  0
 20 42  1  0
 21 43  1  0
 21 44  1  0
 23 45  1  0
M  CHG  1  19   1
M  END
>  <meeko>  (7) 
{"is_sidechain": [false], "free_energy": -6.635, "intermolecular_energy": -7.417, "internal_energy": -0.504}

$$$$
3uuo_ligand
     RDKit          3D

 45 48  0  0  0  0  0  0  0  0999 V2000
   -5.3200   12.6080    1.9420 C   0  0  0  0  0  0  0  0  0  0  0  0
   -4.5310   12.0080    2.9650 O   0  0  0  0  0  0  0  0  0  0  0  0
   -3.5180   11.1860    2.5580 C   0  0  0  0  0  0  0  0  0  0  0  0
   -2.9910   10.1140    3.2580 C   0  0  0  0  0  0  0  0  0  0  0  0
   -1.9410    9.3560    2.7100 C   0  0  0  0  0  0  0  0  0  0  0  0
   -1.3880    8.1970    3.5040 C   0  0  0  0  0  0  0  0  0  0  0  0
   -1.4040    9.6570    1.4510 C   0  0  0  0  0  0  0  0  0  0  0  0
   -0.4060    8.8980    0.9930 N   0  0  0  0  0  0  0  0  0  0  0  0
    0.0660    9.2300   -0.2140 C   0  0  0  0  0  0  0  0  0  0  0  0
    1.0770    8.5790   -0.8500 N   0  0  0  0  0  0  0  0  0  0  0  0
    1.3680    9.0900   -2.0560 N   0  0  0  0  0  0  0  0  0  0  0  0
    0.5020   10.1050   -2.1940 C   0  0  0  0  0  0  0  0  0  0  0  0
    0.5700   10.8790   -3.4560 C   0  0  0  0  0  0  0  0  0  0  0  0
   -0.3470   10.2550   -1.0500 C   0  0  0  0  0  0  0  0  0  0  0  0
   -1.4040   11.0730   -0.5760 C   0  0  0  0  0  0  0  0  0  0  0  0
   -1.9820   12.1630   -1.2640 N   0  0  0  0  0  0  0  0  0  0  0  0
   -1.1650   13.3740   -1.3850 C   0  0  0  0  0  0  0  0  0  0  0  0
   -2.0730   14.5660   -1.7530 C   0  0  0  0  0  0  0  0  0  0  0  0
   -2.9050   14.2360   -2.9750 N   0  0  0  0  0  0  0  0  0  0  0  0
   -3.7280   12.9770   -2.7960 C   0  0  0  0  0  0  0  0  0  0  0  0
   -2.8240   11.7880   -2.4100 C   0  0  0  0  0  0  0  0  0  0  0  0
   -1.9370   10.7460    0.7210 C   0  0  0  0  0  0  0  0  0  0  0  0
   -2.9890   11.4910    1.3050 C   0  0  0  0  0  0  0  0  0  0  0  0
   -6.1160   13.2133    2.4003 H   0  0  0  0  0  0  0  0  0  0  0  0
   -4.6830   13.2519    1.3178 H   0  0  0  0  0  0  0  0  0  0  0  0
   -5.7703   11.8221    1.3178 H   0  0  0  0  0  0  0  0  0  0  0  0
   -3.3955    9.8541    4.2473 H   0  0  0  0  0  0  0  0  0  0  0  0
   -1.4886    8.4078    4.5789 H   0  0  0  0  0  0  0  0  0  0  0  0
   -1.9469    7.2826    3.2558 H   0  0  0  0  0  0  0  0  0  0  0  0
   -0.3257    8.0562    3.2558 H   0  0  0  0  0  0  0  0  0  0  0  0
    1.6000    7.7840   -0.5070 H   0  0  0  0  0  0  0  0  0  0  0  0
    0.6641   11.9502   -3.2245 H   0  0  0  0  0  0  0  0  0  0  0  0
    1.4429   10.5520   -4.0401 H   0  0  0  0  0  0  0  0  0  0  0  0
   -0.3465   10.7092   -4.0401 H   0  0  0  0  0  0  0  0  0  0  0  0
   -0.6632   13.5761   -0.4272 H   0  0  0  0  0  0  0  0  0  0  0  0
   -0.4077   13.2311   -2.1699 H   0  0  0  0  0  0  0  0  0  0  0  0
   -2.7415   14.7873   -0.9079 H   0  0  0  0  0  0  0  0  0  0  0  0
   -1.4432   15.4402   -1.9746 H   0  0  0  0  0  0  0  0  0  0  0  0
   -3.5310   15.0240   -3.1820 H   0  0  0  0  0  0  0  0  0  0  0  0
   -2.2870   14.1250   -3.7880 H   0  0  0  0  0  0  0  0  0  0  0  0
   -4.4701   13.1402   -2.0006 H   0  0  0  0  0  0  0  0  0  0  0  0
   -4.2328   12.7452   -3.7454 H   0  0  0  0  0  0  0  0  0  0  0  0
   -3.4496   10.9250   -2.1383 H   0  0  0  0  0  0  0  0  0  0  0  0
   -2.1834   11.5226   -3.2639 H   0  0  0  0  0  0  0  0  0  0  0  0
   -3.4053   12.3437    0.7486 H   0  0  0  0  0  0  0  0  0  0  0  0
  1  2  1  0
  2  3  1  0
  3  4  2  0
  4  5  1  0
  5  6  1  0
  5  7  2  0
  7  8  1  0
  8  9  2  0
  9 10  1  0
 10 11  1  0
 11 12  2  0
 12 13  1  0
 12 14  1  0
 14 15  2  0
 15 16  1  0
 16 17  1  0
 17 18  1  0
 18 19  1  0
 19 20  1  0
 20 21  1  0
 15 22  1  0
 22 23  2  0
 23  3  1  0
 22  7  1  0
 14  9  1  0
 21 16  1  0
  1 24  1  0
  1 25  1  0
  1 26  1  0
  4 27  1  0
  6 28  1  0
  6 29  1  0
  6 30  1  0
 10 31  1  0
 13 32  1  0
 13 33  1  0
 13 34  1  0
 17 35  1  0
 17 36  1  0
 18 37  1  0
 18 38  1  0
 19 39  1  0
 19 40  1  0
 20 41  1  0
 20 42  1  0
 21 43  1  0
 21 44  1  0
 23 45  1  0
M  CHG  1  19   1
M  END
>  <meeko>  (8) 
{"is_sidechain": [false], "free_energy": -6.617, "intermolecular_energy": -7.384, "internal_energy": -0.516}

$$$$
3uuo_ligand
     RDKit          3D

 45 48  0  0  0  0  0  0  0  0999 V2000
    2.9230    9.7850   -4.2220 C   0  0  0  0  0  0  0  0  0  0  0  0
    1.6400    9.3360   -3.7970 O   0  0  0  0  0  0  0  0  0  0  0  0
    0.7210   10.3010   -3.4940 C   0  0  0  0  0  0  0  0  0  0  0  0
    0.4380   11.4350   -4.2370 C   0  0  0  0  0  0  0  0  0  0  0  0
   -0.5390   12.3460   -3.7950 C   0  0  0  0  0  0  0  0  0  0  0  0
   -0.8170   13.5740   -4.6280 C   0  0  0  0  0  0  0  0  0  0  0  0
   -1.2490   12.1350   -2.6060 C   0  0  0  0  0  0  0  0  0  0  0  0
   -2.1590   13.0420   -2.2450 N   0  0  0  0  0  0  0  0  0  0  0  0
   -2.8080   12.7870   -1.1040 C   0  0  0  0  0  0  0  0  0  0  0  0
   -3.7700   13.5890   -0.5700 N   0  0  0  0  0  0  0  0  0  0  0  0
   -4.2820   13.1200    0.5770 N   0  0  0  0  0  0  0  0  0  0  0  0
   -3.6230   11.9690    0.7790 C   0  0  0  0  0  0  0  0  0  0  0  0
   -3.9790   11.1940    1.9910 C   0  0  0  0  0  0  0  0  0  0  0  0
   -2.6600   11.7060   -0.2490 C   0  0  0  0  0  0  0  0  0  0  0  0
   -1.6940   10.7360   -0.6170 C   0  0  0  0  0  0  0  0  0  0  0  0
   -1.3870    9.5580    0.1000 N   0  0  0  0  0  0  0  0  0  0  0  0
   -0.7040    9.7280    1.3860 C   0  0  0  0  0  0  0  0  0  0  0  0
   -0.0690    8.3860    1.8070 C   0  0  0  0  0  0  0  0  0  0  0  0
   -1.1070    7.2830    1.7810 N   0  0  0  0  0  0  0  0  0  0  0  0
   -1.7820    7.1510    0.4310 C   0  0  0  0  0  0  0  0  0  0  0  0
   -2.4000    8.4970   -0.0010 C   0  0  0  0  0  0  0  0  0  0  0  0
   -0.9750   10.9760   -1.8410 C   0  0  0  0  0  0  0  0  0  0  0  0
    0.0170   10.0840   -2.3110 C   0  0  0  0  0  0  0  0  0  0  0  0
    3.5454   10.0028   -3.3416 H   0  0  0  0  0  0  0  0  0  0  0  0
    3.4039    9.0018   -4.8263 H   0  0  0  0  0  0  0  0  0  0  0  0
    2.8106   10.6972   -4.8263 H   0  0  0  0  0  0  0  0  0  0  0  0
    0.9789   11.6241   -5.1760 H   0  0  0  0  0  0  0  0  0  0  0  0
   -1.0109   14.4304   -3.9654 H   0  0  0  0  0  0  0  0  0  0  0  0
    0.0546   13.7915   -5.2628 H   0  0  0  0  0  0  0  0  0  0  0  0
   -1.6973   13.3949   -5.2628 H   0  0  0  0  0  0  0  0  0  0  0  0
   -4.1120   14.4630   -0.9480 H   0  0  0  0  0  0  0  0  0  0  0  0
   -3.7130   11.7730    2.8877 H   0  0  0  0  0  0  0  0  0  0  0  0
   -5.0603   10.9918    1.9925 H   0  0  0  0  0  0  0  0  0  0  0  0
   -3.4279   10.2420    1.9925 H   0  0  0  0  0  0  0  0  0  0  0  0
    0.0818   10.4913    1.2867 H   0  0  0  0  0  0  0  0  0  0  0  0
   -1.4288   10.0483    2.1489 H   0  0  0  0  0  0  0  0  0  0  0  0
    0.7448    8.1352    1.1107 H   0  0  0  0  0  0  0  0  0  0  0  0
    0.3262    8.4818    2.8291 H   0  0  0  0  0  0  0  0  0  0  0  0
   -0.6600    6.3910    2.0250 H   0  0  0  0  0  0  0  0  0  0  0  0
   -1.8190    7.4660    2.4990 H   0  0  0  0  0  0  0  0  0  0  0  0
   -1.0378    6.8385   -0.3163 H   0  0  0  0  0  0  0  0  0  0  0  0
   -2.5831    6.4010    0.5069 H   0  0  0  0  0  0  0  0  0  0  0  0
   -2.7500    8.4224   -1.0412 H   0  0  0  0  0  0  0  0  0  0  0  0
   -3.2489    8.7376    0.6559 H   0  0  0  0  0  0  0  0  0  0  0  0
    0.2415    9.1840   -1.7198 H   0  0  0  0  0  0  0  0  0  0  0  0
  1  2  1  0
  2  3  1  0
  3  4  2  0
  4  5  1  0
  5  6  1  0
  5  7  2  0
  7  8  1  0
  8  9  2  0
  9 10  1  0
 10 11  1  0
 11 12  2  0
 12 13  1  0
 12 14  1  0
 14 15  2  0
 15 16  1  0
 16 17  1  0
 17 18  1  0
 18 19  1  0
 19 20  1  0
 20 21  1  0
 15 22  1  0
 22 23  2  0
 23  3  1  0
 22  7  1  0
 14  9  1  0
 21 16  1  0
  1 24  1  0
  1 25  1  0
  1 26  1  0
  4 27  1  0
  6 28  1  0
  6 29  1  0
  6 30  1  0
 10 31  1  0
 13 32  1  0
 13 33  1  0
 13 34  1  0
 17 35  1  0
 17 36  1  0
 18 37  1  0
 18 38  1  0
 19 39  1  0
 19 40  1  0
 20 41  1  0
 20 42  1  0
 21 43  1  0
 21 44  1  0
 23 45  1  0
M  CHG  1  19   1
M  END
>  <meeko>  (9) 
{"is_sidechain": [false], "free_energy": -6.344, "intermolecular_energy": -7.093, "internal_energy": -0.503}

$$$$
