2wtv_ligand
     RDKit          3D

 48 52  0  0  0  0  0  0  0  0999 V2000
  -10.3560    8.4980    0.0680 O   0  0  0  0  0  0  0  0  0  0  0  0
  -10.5120    8.8490   -1.1450 C   0  0  0  0  0  0  0  0  0  0  0  0
  -11.1310    9.8860   -1.5430 O   0  0  0  0  0  0  0  0  0  0  0  0
   -9.9040    7.9520   -2.2060 C   0  0  0  0  0  0  0  0  0  0  0  0
   -8.5440    8.0370   -2.5290 C   0  0  0  0  0  0  0  0  0  0  0  0
   -7.9860    7.2090   -3.5110 C   0  0  0  0  0  0  0  0  0  0  0  0
   -8.7630    6.2670   -4.2050 C   0  0  0  0  0  0  0  0  0  0  0  0
   -8.1390    5.4790   -5.1800 N   0  0  0  0  0  0  0  0  0  0  0  0
   -6.8180    5.2580   -5.5520 C   0  0  0  0  0  0  0  0  0  0  0  0
   -6.0730    4.2900   -5.0070 N   0  0  0  0  0  0  0  0  0  0  0  0
   -4.8070    4.1590   -5.4410 C   0  0  0  0  0  0  0  0  0  0  0  0
   -4.2500    4.9520   -6.4150 C   0  0  0  0  0  0  0  0  0  0  0  0
   -5.0760    5.9330   -6.9230 C   0  0  0  0  0  0  0  0  0  0  0  0
   -6.3560    6.0830   -6.5070 N   0  0  0  0  0  0  0  0  0  0  0  0
   -4.6440    6.8530   -7.9960 C   0  0  0  0  0  0  0  0  0  0  0  0
   -5.5760    7.2340   -8.9880 C   0  0  0  0  0  0  0  0  0  0  0  0
   -5.2220    8.0690  -10.0510 C   0  0  0  0  0  0  0  0  0  0  0  0
   -3.9200    8.5390  -10.1470 C   0  0  0  0  0  0  0  0  0  0  0  0
   -3.4700    9.5540  -11.4610 Cl  0  0  0  0  0  0  0  0  0  0  0  0
   -2.9760    8.1930   -9.1860 C   0  0  0  0  0  0  0  0  0  0  0  0
   -3.3330    7.3670   -8.1030 C   0  0  0  0  0  0  0  0  0  0  0  0
   -2.2710    7.0860   -7.0790 C   0  0  0  0  0  0  0  0  0  0  0  0
   -1.4280    8.2220   -6.6280 C   0  0  0  0  0  0  0  0  0  0  0  0
   -0.1680    8.4310   -7.1870 C   0  0  0  0  0  0  0  0  0  0  0  0
    0.3140    7.6040   -8.1240 F   0  0  0  0  0  0  0  0  0  0  0  0
    0.6210    9.5090   -6.7850 C   0  0  0  0  0  0  0  0  0  0  0  0
    0.1470   10.3930   -5.8160 C   0  0  0  0  0  0  0  0  0  0  0  0
   -1.1140   10.1900   -5.2510 C   0  0  0  0  0  0  0  0  0  0  0  0
   -1.8950    9.1090   -5.6610 C   0  0  0  0  0  0  0  0  0  0  0  0
   -3.0810    8.9220   -5.0660 F   0  0  0  0  0  0  0  0  0  0  0  0
   -2.0290    5.9370   -6.5400 N   0  0  0  0  0  0  0  0  0  0  0  0
   -2.8480    4.7850   -6.8900 C   0  0  0  0  0  0  0  0  0  0  0  0
  -10.1190    6.1850   -3.8800 C   0  0  0  0  0  0  0  0  0  0  0  0
  -10.6810    7.0120   -2.8970 C   0  0  0  0  0  0  0  0  0  0  0  0
   -7.9058    8.7635   -2.0046 H   0  0  0  0  0  0  0  0  0  0  0  0
   -6.9147    7.2984   -3.7441 H   0  0  0  0  0  0  0  0  0  0  0  0
   -8.7490    4.9440   -5.7770 H   0  0  0  0  0  0  0  0  0  0  0  0
   -4.1825    3.3731   -4.9911 H   0  0  0  0  0  0  0  0  0  0  0  0
   -6.6093    6.8627   -8.9213 H   0  0  0  0  0  0  0  0  0  0  0  0
   -5.9701    8.3517  -10.8063 H   0  0  0  0  0  0  0  0  0  0  0  0
   -1.9450    8.5666   -9.2725 H   0  0  0  0  0  0  0  0  0  0  0  0
    1.6148    9.6614   -7.2313 H   0  0  0  0  0  0  0  0  0  0  0  0
    0.7637   11.2465   -5.4981 H   0  0  0  0  0  0  0  0  0  0  0  0
   -1.4911   10.8818   -4.4834 H   0  0  0  0  0  0  0  0  0  0  0  0
   -2.8520    4.6675   -7.9837 H   0  0  0  0  0  0  0  0  0  0  0  0
   -2.4209    3.8954   -6.4040 H   0  0  0  0  0  0  0  0  0  0  0  0
  -10.7573    5.4588   -4.4045 H   0  0  0  0  0  0  0  0  0  0  0  0
  -11.7521    6.9214   -2.6636 H   0  0  0  0  0  0  0  0  0  0  0  0
  1  2  2  0
  2  3  1  0
  2  4  1  0
  4  5  2  0
  5  6  1  0
  6  7  2  0
  7  8  1  0
  8  9  1  0
  9 10  2  0
 10 11  1  0
 11 12  2  0
 12 13  1  0
 13 14  2  0
 13 15  1  0
 15 16  2  0
 16 17  1  0
 17 18  2  0
 18 19  1  0
 18 20  1  0
 20 21  2  0
 21 22  1  0
 22 23  1  0
 23 24  2  0
 24 25  1  0
 24 26  1  0
 26 27  2  0
 27 28  1  0
 28 29  2  0
 29 30  1  0
 22 31  2  0
 31 32  1  0
  7 33  1  0
 33 34  2  0
 34  4  1  0
 14  9  1  0
 21 15  1  0
 29 23  1  0
 32 12  1  0
  5 35  1  0
  6 36  1  0
  8 37  1  0
 11 38  1  0
 16 39  1  0
 17 40  1  0
 20 41  1  0
 26 42  1  0
 27 43  1  0
 28 44  1  0
 32 45  1  0
 32 46  1  0
 33 47  1  0
 34 48  1  0
M  CHG  1   3  -1
M  END
>  <meeko>  (1) 
{"is_sidechain": [false], "free_energy": -8.567, "intermolecular_energy": -10.57, "internal_energy": -1.237}

$$$$
2wtv_ligand
     RDKit          3D

 48 52  0  0  0  0  0  0  0  0999 V2000
    6.3170   12.1200   -2.6490 O   0  0  0  0  0  0  0  0  0  0  0  0
    5.2660   11.7950   -2.0090 C   0  0  0  0  0  0  0  0  0  0  0  0
    5.1440   11.7730   -0.7430 O   0  0  0  0  0  0  0  0  0  0  0  0
    4.0530   11.4000   -2.8300 C   0  0  0  0  0  0  0  0  0  0  0  0
    3.9370   11.7790   -4.1730 C   0  0  0  0  0  0  0  0  0  0  0  0
    2.8150   11.4140   -4.9270 C   0  0  0  0  0  0  0  0  0  0  0  0
    1.7690   10.6590   -4.3710 C   0  0  0  0  0  0  0  0  0  0  0  0
    0.6750   10.3390   -5.1830 N   0  0  0  0  0  0  0  0  0  0  0  0
    0.0630    9.1520   -5.5680 C   0  0  0  0  0  0  0  0  0  0  0  0
    0.7480    8.1330   -6.1000 N   0  0  0  0  0  0  0  0  0  0  0  0
    0.0600    7.0270   -6.4350 C   0  0  0  0  0  0  0  0  0  0  0  0
   -1.2940    6.8870   -6.2480 C   0  0  0  0  0  0  0  0  0  0  0  0
   -1.9320    7.9810   -5.7030 C   0  0  0  0  0  0  0  0  0  0  0  0
   -1.2620    9.1050   -5.3530 N   0  0  0  0  0  0  0  0  0  0  0  0
   -3.3800    7.9870   -5.4100 C   0  0  0  0  0  0  0  0  0  0  0  0
   -3.8420    8.6440   -4.2470 C   0  0  0  0  0  0  0  0  0  0  0  0
   -5.1930    8.6540   -3.8920 C   0  0  0  0  0  0  0  0  0  0  0  0
   -6.1150    7.9980   -4.6940 C   0  0  0  0  0  0  0  0  0  0  0  0
   -7.7800    7.9900   -4.2550 Cl  0  0  0  0  0  0  0  0  0  0  0  0
   -5.7030    7.3470   -5.8510 C   0  0  0  0  0  0  0  0  0  0  0  0
   -4.3450    7.3510   -6.2230 C   0  0  0  0  0  0  0  0  0  0  0  0
   -3.9880    6.6730   -7.5150 C   0  0  0  0  0  0  0  0  0  0  0  0
   -4.8640    6.9190   -8.6890 C   0  0  0  0  0  0  0  0  0  0  0  0
   -4.6180    7.9950   -9.5410 C   0  0  0  0  0  0  0  0  0  0  0  0
   -3.6030    8.8380   -9.3070 F   0  0  0  0  0  0  0  0  0  0  0  0
   -5.4220    8.2190  -10.6580 C   0  0  0  0  0  0  0  0  0  0  0  0
   -6.4840    7.3560  -10.9330 C   0  0  0  0  0  0  0  0  0  0  0  0
   -6.7360    6.2770  -10.0850 C   0  0  0  0  0  0  0  0  0  0  0  0
   -5.9250    6.0620   -8.9700 C   0  0  0  0  0  0  0  0  0  0  0  0
   -6.2240    5.0400   -8.1560 F   0  0  0  0  0  0  0  0  0  0  0  0
   -2.9730    5.8980   -7.7040 N   0  0  0  0  0  0  0  0  0  0  0  0
   -2.0370    5.6490   -6.6160 C   0  0  0  0  0  0  0  0  0  0  0  0
    1.8890   10.2820   -3.0320 C   0  0  0  0  0  0  0  0  0  0  0  0
    3.0120   10.6450   -2.2730 C   0  0  0  0  0  0  0  0  0  0  0  0
    4.7372   12.3708   -4.6415 H   0  0  0  0  0  0  0  0  0  0  0  0
    2.7511   11.7259   -5.9799 H   0  0  0  0  0  0  0  0  0  0  0  0
    0.2010   11.1150   -5.6170 H   0  0  0  0  0  0  0  0  0  0  0  0
    0.6119    6.1879   -6.8836 H   0  0  0  0  0  0  0  0  0  0  0  0
   -3.1167    9.1625   -3.6027 H   0  0  0  0  0  0  0  0  0  0  0  0
   -5.5232    9.1783   -2.9831 H   0  0  0  0  0  0  0  0  0  0  0  0
   -6.4412    6.8264   -6.4788 H   0  0  0  0  0  0  0  0  0  0  0  0
   -5.2199    9.0734  -11.3206 H   0  0  0  0  0  0  0  0  0  0  0  0
   -7.1196    7.5258  -11.8146 H   0  0  0  0  0  0  0  0  0  0  0  0
   -7.5738    5.5960  -10.2954 H   0  0  0  0  0  0  0  0  0  0  0  0
   -2.5949    5.2914   -5.7380 H   0  0  0  0  0  0  0  0  0  0  0  0
   -1.3101    4.8935   -6.9490 H   0  0  0  0  0  0  0  0  0  0  0  0
    1.0889    9.6899   -2.5637 H   0  0  0  0  0  0  0  0  0  0  0  0
    3.0765   10.3310   -1.2208 H   0  0  0  0  0  0  0  0  0  0  0  0
  1  2  2  0
  2  3  1  0
  2  4  1  0
  4  5  2  0
  5  6  1  0
  6  7  2  0
  7  8  1  0
  8  9  1  0
  9 10  2  0
 10 11  1  0
 11 12  2  0
 12 13  1  0
 13 14  2  0
 13 15  1  0
 15 16  2  0
 16 17  1  0
 17 18  2  0
 18 19  1  0
 18 20  1  0
 20 21  2  0
 21 22  1  0
 22 23  1  0
 23 24  2  0
 24 25  1  0
 24 26  1  0
 26 27  2  0
 27 28  1  0
 28 29  2  0
 29 30  1  0
 22 31  2  0
 31 32  1  0
  7 33  1  0
 33 34  2  0
 34  4  1  0
 14  9  1  0
 21 15  1  0
 29 23  1  0
 32 12  1  0
  5 35  1  0
  6 36  1  0
  8 37  1  0
 11 38  1  0
 16 39  1  0
 17 40  1  0
 20 41  1  0
 26 42  1  0
 27 43  1  0
 28 44  1  0
 32 45  1  0
 32 46  1  0
 33 47  1  0
 34 48  1  0
M  CHG  1   3  -1
M  END
>  <meeko>  (2) 
{"is_sidechain": [false], "free_energy": -8.402, "intermolecular_energy": -10.529, "internal_energy": -1.075}

$$$$
2wtv_ligand
     RDKit          3D

 48 52  0  0  0  0  0  0  0  0999 V2000
    5.3890   11.7810   -0.7420 O   0  0  0  0  0  0  0  0  0  0  0  0
    5.4820   11.7820   -2.0110 C   0  0  0  0  0  0  0  0  0  0  0  0
    6.5350   12.0350   -2.6780 O   0  0  0  0  0  0  0  0  0  0  0  0
    4.2260   11.4530   -2.7950 C   0  0  0  0  0  0  0  0  0  0  0  0
    3.1310   10.8370   -2.1760 C   0  0  0  0  0  0  0  0  0  0  0  0
    1.9730   10.5320   -2.9030 C   0  0  0  0  0  0  0  0  0  0  0  0
    1.8650   10.8300   -4.2710 C   0  0  0  0  0  0  0  0  0  0  0  0
    0.6810   10.4880   -4.9350 N   0  0  0  0  0  0  0  0  0  0  0  0
    0.1090    9.2910   -5.3490 C   0  0  0  0  0  0  0  0  0  0  0  0
    0.8330    8.2930   -5.8670 N   0  0  0  0  0  0  0  0  0  0  0  0
    0.1820    7.1760   -6.2340 C   0  0  0  0  0  0  0  0  0  0  0  0
   -1.1740    7.0040   -6.0920 C   0  0  0  0  0  0  0  0  0  0  0  0
   -1.8540    8.0780   -5.5600 C   0  0  0  0  0  0  0  0  0  0  0  0
   -1.2210    9.2140   -5.1780 N   0  0  0  0  0  0  0  0  0  0  0  0
   -3.3110    8.0500   -5.3150 C   0  0  0  0  0  0  0  0  0  0  0  0
   -3.8250    8.6870   -4.1620 C   0  0  0  0  0  0  0  0  0  0  0  0
   -5.1870    8.6640   -3.8510 C   0  0  0  0  0  0  0  0  0  0  0  0
   -6.0680    7.9950   -4.6880 C   0  0  0  0  0  0  0  0  0  0  0  0
   -7.7450    7.9460   -4.3050 Cl  0  0  0  0  0  0  0  0  0  0  0  0
   -5.6030    7.3630   -5.8370 C   0  0  0  0  0  0  0  0  0  0  0  0
   -4.2340    7.4000   -6.1640 C   0  0  0  0  0  0  0  0  0  0  0  0
   -3.8200    6.7420   -7.4490 C   0  0  0  0  0  0  0  0  0  0  0  0
   -4.6620    6.9790   -8.6490 C   0  0  0  0  0  0  0  0  0  0  0  0
   -5.7380    6.1400   -8.9340 C   0  0  0  0  0  0  0  0  0  0  0  0
   -6.0220    5.0950   -8.1440 F   0  0  0  0  0  0  0  0  0  0  0  0
   -6.5480    6.3690  -10.0460 C   0  0  0  0  0  0  0  0  0  0  0  0
   -6.2830    7.4520  -10.8850 C   0  0  0  0  0  0  0  0  0  0  0  0
   -5.2070    8.2960  -10.6070 C   0  0  0  0  0  0  0  0  0  0  0  0
   -4.4040    8.0580   -9.4920 C   0  0  0  0  0  0  0  0  0  0  0  0
   -3.3550    8.8650   -9.2810 F   0  0  0  0  0  0  0  0  0  0  0  0
   -2.7820    5.9910   -7.6110 N   0  0  0  0  0  0  0  0  0  0  0  0
   -1.8770    5.7530   -6.4950 C   0  0  0  0  0  0  0  0  0  0  0  0
    2.9600   11.4450   -4.8840 C   0  0  0  0  0  0  0  0  0  0  0  0
    4.1200   11.7520   -4.1600 C   0  0  0  0  0  0  0  0  0  0  0  0
    3.1809   10.5895   -1.1054 H   0  0  0  0  0  0  0  0  0  0  0  0
    1.1287   10.0478   -2.3903 H   0  0  0  0  0  0  0  0  0  0  0  0
    0.0830   11.2550   -5.2010 H   0  0  0  0  0  0  0  0  0  0  0  0
    0.7669    6.3540   -6.6723 H   0  0  0  0  0  0  0  0  0  0  0  0
   -3.1326    9.2159   -3.4905 H   0  0  0  0  0  0  0  0  0  0  0  0
   -5.5580    9.1727   -2.9490 H   0  0  0  0  0  0  0  0  0  0  0  0
   -6.3083    6.8319   -6.4931 H   0  0  0  0  0  0  0  0  0  0  0  0
   -7.3929    5.6982  -10.2609 H   0  0  0  0  0  0  0  0  0  0  0  0
   -6.9198    7.6397  -11.7621 H   0  0  0  0  0  0  0  0  0  0  0  0
   -4.9922    9.1491  -11.2674 H   0  0  0  0  0  0  0  0  0  0  0  0
   -2.4553    5.3752   -5.6389 H   0  0  0  0  0  0  0  0  0  0  0  0
   -1.1228    5.0169   -6.8103 H   0  0  0  0  0  0  0  0  0  0  0  0
    2.9105   11.6927   -5.9546 H   0  0  0  0  0  0  0  0  0  0  0  0
    4.9635   12.2370   -4.6731 H   0  0  0  0  0  0  0  0  0  0  0  0
  1  2  2  0
  2  3  1  0
  2  4  1  0
  4  5  2  0
  5  6  1  0
  6  7  2  0
  7  8  1  0
  8  9  1  0
  9 10  2  0
 10 11  1  0
 11 12  2  0
 12 13  1  0
 13 14  2  0
 13 15  1  0
 15 16  2  0
 16 17  1  0
 17 18  2  0
 18 19  1  0
 18 20  1  0
 20 21  2  0
 21 22  1  0
 22 23  1  0
 23 24  2  0
 24 25  1  0
 24 26  1  0
 26 27  2  0
 27 28  1  0
 28 29  2  0
 29 30  1  0
 22 31  2  0
 31 32  1  0
  7 33  1  0
 33 34  2  0
 34  4  1  0
 14  9  1  0
 21 15  1  0
 29 23  1  0
 32 12  1  0
  5 35  1  0
  6 36  1  0
  8 37  1  0
 11 38  1  0
 16 39  1  0
 17 40  1  0
 20 41  1  0
 26 42  1  0
 27 43  1  0
 28 44  1  0
 32 45  1  0
 32 46  1  0
 33 47  1  0
 34 48  1  0
M  CHG  1   3  -1
M  END
>  <meeko>  (3) 
{"is_sidechain": [false], "free_energy": -8.354, "intermolecular_energy": -10.509, "internal_energy": -1.035}

$$$$
2wtv_ligand
     RDKit          3D

 48 52  0  0  0  0  0  0  0  0999 V2000
    4.5880   11.6840   -1.5490 O   0  0  0  0  0  0  0  0  0  0  0  0
    3.5640   11.4340   -0.8360 C   0  0  0  0  0  0  0  0  0  0  0  0
    3.4020   11.7820    0.3770 O   0  0  0  0  0  0  0  0  0  0  0  0
    2.4390   10.6550   -1.4910 C   0  0  0  0  0  0  0  0  0  0  0  0
    2.5580   10.1870   -2.8060 C   0  0  0  0  0  0  0  0  0  0  0  0
    1.5170    9.4700   -3.4090 C   0  0  0  0  0  0  0  0  0  0  0  0
    0.3220    9.1940   -2.7240 C   0  0  0  0  0  0  0  0  0  0  0  0
   -0.6780    8.4800   -3.3940 N   0  0  0  0  0  0  0  0  0  0  0  0
   -1.9050    8.8170   -3.9540 C   0  0  0  0  0  0  0  0  0  0  0  0
   -2.3440   10.0790   -4.0120 N   0  0  0  0  0  0  0  0  0  0  0  0
   -3.5440   10.2970   -4.5760 C   0  0  0  0  0  0  0  0  0  0  0  0
   -4.3290    9.3000   -5.1040 C   0  0  0  0  0  0  0  0  0  0  0  0
   -3.8160    8.0250   -5.0000 C   0  0  0  0  0  0  0  0  0  0  0  0
   -2.6070    7.7790   -4.4400 N   0  0  0  0  0  0  0  0  0  0  0  0
   -4.5180    6.8430   -5.5400 C   0  0  0  0  0  0  0  0  0  0  0  0
   -3.7610    5.8080   -6.1340 C   0  0  0  0  0  0  0  0  0  0  0  0
   -4.3650    4.6810   -6.6990 C   0  0  0  0  0  0  0  0  0  0  0  0
   -5.7480    4.5690   -6.6860 C   0  0  0  0  0  0  0  0  0  0  0  0
   -6.5020    3.1940   -7.3940 Cl  0  0  0  0  0  0  0  0  0  0  0  0
   -6.5280    5.5620   -6.1040 C   0  0  0  0  0  0  0  0  0  0  0  0
   -5.9220    6.6890   -5.5170 C   0  0  0  0  0  0  0  0  0  0  0  0
   -6.8300    7.6890   -4.8600 C   0  0  0  0  0  0  0  0  0  0  0  0
   -7.9290    7.1690   -4.0070 C   0  0  0  0  0  0  0  0  0  0  0  0
   -9.1300    6.7540   -4.5780 C   0  0  0  0  0  0  0  0  0  0  0  0
   -9.3260    6.8330   -5.9010 F   0  0  0  0  0  0  0  0  0  0  0  0
  -10.1580    6.2430   -3.7860 C   0  0  0  0  0  0  0  0  0  0  0  0
   -9.9850    6.1400   -2.4060 C   0  0  0  0  0  0  0  0  0  0  0  0
   -8.7850    6.5540   -1.8260 C   0  0  0  0  0  0  0  0  0  0  0  0
   -7.7630    7.0630   -2.6270 C   0  0  0  0  0  0  0  0  0  0  0  0
   -6.6410    7.4900   -2.0300 F   0  0  0  0  0  0  0  0  0  0  0  0
   -6.7360    8.9730   -4.9600 N   0  0  0  0  0  0  0  0  0  0  0  0
   -5.6530    9.5630   -5.7350 C   0  0  0  0  0  0  0  0  0  0  0  0
    0.2080    9.6630   -1.4140 C   0  0  0  0  0  0  0  0  0  0  0  0
    1.2480   10.3810   -0.8060 C   0  0  0  0  0  0  0  0  0  0  0  0
    3.4803   10.3851   -3.3718 H   0  0  0  0  0  0  0  0  0  0  0  0
    1.6379    9.1147   -4.4430 H   0  0  0  0  0  0  0  0  0  0  0  0
   -0.5180    7.4910   -3.5090 H   0  0  0  0  0  0  0  0  0  0  0  0
   -3.9187   11.3304   -4.6174 H   0  0  0  0  0  0  0  0  0  0  0  0
   -2.6643    5.8916   -6.1523 H   0  0  0  0  0  0  0  0  0  0  0  0
   -3.7489    3.8893   -7.1503 H   0  0  0  0  0  0  0  0  0  0  0  0
   -7.6239    5.4666   -6.1022 H   0  0  0  0  0  0  0  0  0  0  0  0
  -11.1029    5.9220   -4.2487 H   0  0  0  0  0  0  0  0  0  0  0  0
  -10.7911    5.7341   -1.7772 H   0  0  0  0  0  0  0  0  0  0  0  0
   -8.6453    6.4789   -0.7375 H   0  0  0  0  0  0  0  0  0  0  0  0
   -5.6598    9.1310   -6.7466 H   0  0  0  0  0  0  0  0  0  0  0  0
   -5.8081   10.6513   -5.7751 H   0  0  0  0  0  0  0  0  0  0  0  0
   -0.7145    9.4657   -0.8483 H   0  0  0  0  0  0  0  0  0  0  0  0
    1.1263   10.7357    0.2281 H   0  0  0  0  0  0  0  0  0  0  0  0
  1  2  2  0
  2  3  1  0
  2  4  1  0
  4  5  2  0
  5  6  1  0
  6  7  2  0
  7  8  1  0
  8  9  1  0
  9 10  2  0
 10 11  1  0
 11 12  2  0
 12 13  1  0
 13 14  2  0
 13 15  1  0
 15 16  2  0
 16 17  1  0
 17 18  2  0
 18 19  1  0
 18 20  1  0
 20 21  2  0
 21 22  1  0
 22 23  1  0
 23 24  2  0
 24 25  1  0
 24 26  1  0
 26 27  2  0
 27 28  1  0
 28 29  2  0
 29 30  1  0
 22 31  2  0
 31 32  1  0
  7 33  1  0
 33 34  2  0
 34  4  1  0
 14  9  1  0
 21 15  1  0
 29 23  1  0
 32 12  1  0
  5 35  1  0
  6 36  1  0
  8 37  1  0
 11 38  1  0
 16 39  1  0
 17 40  1  0
 20 41  1  0
 26 42  1  0
 27 43  1  0
 28 44  1  0
 32 45  1  0
 32 46  1  0
 33 47  1  0
 34 48  1  0
M  CHG  1   3  -1
M  END
>  <meeko>  (4) 
{"is_sidechain": [false], "free_energy": -8.334, "intermolecular_energy": -10.676, "internal_energy": -0.844}

$$$$
2wtv_ligand
     RDKit          3D

 48 52  0  0  0  0  0  0  0  0999 V2000
    3.3150   11.7790    0.5320 O   0  0  0  0  0  0  0  0  0  0  0  0
    3.4020   11.4520   -0.6950 C   0  0  0  0  0  0  0  0  0  0  0  0
    4.3010   11.8440   -1.5050 O   0  0  0  0  0  0  0  0  0  0  0  0
    2.3410   10.5120   -1.2360 C   0  0  0  0  0  0  0  0  0  0  0  0
    2.2750   10.2090   -2.6010 C   0  0  0  0  0  0  0  0  0  0  0  0
    1.2930    9.3430   -3.0970 C   0  0  0  0  0  0  0  0  0  0  0  0
    0.3430    8.7480   -2.2510 C   0  0  0  0  0  0  0  0  0  0  0  0
   -0.6150    7.8990   -2.8190 N   0  0  0  0  0  0  0  0  0  0  0  0
   -1.6770    8.0810   -3.6970 C   0  0  0  0  0  0  0  0  0  0  0  0
   -2.6350    8.9900   -3.4850 N   0  0  0  0  0  0  0  0  0  0  0  0
   -3.6160    9.0870   -4.3980 C   0  0  0  0  0  0  0  0  0  0  0  0
   -3.6770    8.3170   -5.5350 C   0  0  0  0  0  0  0  0  0  0  0  0
   -2.6600    7.3970   -5.6810 C   0  0  0  0  0  0  0  0  0  0  0  0
   -1.6580    7.2820   -4.7770 N   0  0  0  0  0  0  0  0  0  0  0  0
   -2.5600    6.5090   -6.8580 C   0  0  0  0  0  0  0  0  0  0  0  0
   -1.2830    6.2140   -7.3860 C   0  0  0  0  0  0  0  0  0  0  0  0
   -1.1200    5.4140   -8.5200 C   0  0  0  0  0  0  0  0  0  0  0  0
   -2.2380    4.8940   -9.1560 C   0  0  0  0  0  0  0  0  0  0  0  0
   -2.0490    3.9220  -10.5630 Cl  0  0  0  0  0  0  0  0  0  0  0  0
   -3.5120    5.1550   -8.6620 C   0  0  0  0  0  0  0  0  0  0  0  0
   -3.6790    5.9450   -7.5090 C   0  0  0  0  0  0  0  0  0  0  0  0
   -5.0820    6.1340   -7.0070 C   0  0  0  0  0  0  0  0  0  0  0  0
   -5.9690    4.9440   -6.9720 C   0  0  0  0  0  0  0  0  0  0  0  0
   -5.7680    3.9390   -6.0270 C   0  0  0  0  0  0  0  0  0  0  0  0
   -4.7620    4.0170   -5.1460 F   0  0  0  0  0  0  0  0  0  0  0  0
   -6.6110    2.8300   -5.9730 C   0  0  0  0  0  0  0  0  0  0  0  0
   -7.6730    2.7210   -6.8720 C   0  0  0  0  0  0  0  0  0  0  0  0
   -7.8810    3.7220   -7.8220 C   0  0  0  0  0  0  0  0  0  0  0  0
   -7.0320    4.8280   -7.8670 C   0  0  0  0  0  0  0  0  0  0  0  0
   -7.2380    5.7480   -8.8200 F   0  0  0  0  0  0  0  0  0  0  0  0
   -5.5900    7.2450   -6.5880 N   0  0  0  0  0  0  0  0  0  0  0  0
   -4.7670    8.4460   -6.5410 C   0  0  0  0  0  0  0  0  0  0  0  0
    0.4130    9.0530   -0.8900 C   0  0  0  0  0  0  0  0  0  0  0  0
    1.3950    9.9190   -0.3890 C   0  0  0  0  0  0  0  0  0  0  0  0
    3.0038   10.6569   -3.2926 H   0  0  0  0  0  0  0  0  0  0  0  0
    1.2649    9.1235   -4.1745 H   0  0  0  0  0  0  0  0  0  0  0  0
   -0.5670    6.9300   -2.5480 H   0  0  0  0  0  0  0  0  0  0  0  0
   -4.4147    9.8235   -4.2260 H   0  0  0  0  0  0  0  0  0  0  0  0
   -0.3917    6.6259   -6.8901 H   0  0  0  0  0  0  0  0  0  0  0  0
   -0.1127    5.1981   -8.9056 H   0  0  0  0  0  0  0  0  0  0  0  0
   -4.3931    4.7420   -9.1749 H   0  0  0  0  0  0  0  0  0  0  0  0
   -6.4396    2.0430   -5.2239 H   0  0  0  0  0  0  0  0  0  0  0  0
   -8.3433    1.8497   -6.8319 H   0  0  0  0  0  0  0  0  0  0  0  0
   -8.7143    3.6389   -8.5352 H   0  0  0  0  0  0  0  0  0  0  0  0
   -4.3212    8.6137   -7.5325 H   0  0  0  0  0  0  0  0  0  0  0  0
   -5.4064    9.2934   -6.2528 H   0  0  0  0  0  0  0  0  0  0  0  0
   -0.3159    8.6055   -0.1983 H   0  0  0  0  0  0  0  0  0  0  0  0
    1.4235   10.1371    0.6888 H   0  0  0  0  0  0  0  0  0  0  0  0
  1  2  2  0
  2  3  1  0
  2  4  1  0
  4  5  2  0
  5  6  1  0
  6  7  2  0
  7  8  1  0
  8  9  1  0
  9 10  2  0
 10 11  1  0
 11 12  2  0
 12 13  1  0
 13 14  2  0
 13 15  1  0
 15 16  2  0
 16 17  1  0
 17 18  2  0
 18 19  1  0
 18 20  1  0
 20 21  2  0
 21 22  1  0
 22 23  1  0
 23 24  2  0
 24 25  1  0
 24 26  1  0
 26 27  2  0
 27 28  1  0
 28 29  2  0
 29 30  1  0
 22 31  2  0
 31 32  1  0
  7 33  1  0
 33 34  2  0
 34  4  1  0
 14  9  1  0
 21 15  1  0
 29 23  1  0
 32 12  1  0
  5 35  1  0
  6 36  1  0
  8 37  1  0
 11 38  1  0
 16 39  1  0
 17 40  1  0
 20 41  1  0
 26 42  1  0
 27 43  1  0
 28 44  1  0
 32 45  1  0
 32 46  1  0
 33 47  1  0
 34 48  1  0
M  CHG  1   3  -1
M  END
>  <meeko>  (5) 
{"is_sidechain": [false], "free_energy": -8.19, "intermolecular_energy": -10.154, "internal_energy": -1.188}

$$$$
2wtv_ligand
     RDKit          3D

 48 52  0  0  0  0  0  0  0  0999 V2000
    6.2080   11.7140   -3.4150 O   0  0  0  0  0  0  0  0  0  0  0  0
    5.2210   11.7740   -2.6130 C   0  0  0  0  0  0  0  0  0  0  0  0
    5.1550   12.5000   -1.5720 O   0  0  0  0  0  0  0  0  0  0  0  0
    4.0210   10.9020   -2.9300 C   0  0  0  0  0  0  0  0  0  0  0  0
    3.8930   10.2760   -4.1760 C   0  0  0  0  0  0  0  0  0  0  0  0
    2.7830    9.4740   -4.4670 C   0  0  0  0  0  0  0  0  0  0  0  0
    1.7620    9.2660   -3.5260 C   0  0  0  0  0  0  0  0  0  0  0  0
    0.6770    8.4580   -3.8890 N   0  0  0  0  0  0  0  0  0  0  0  0
   -0.6800    8.6820   -4.0840 C   0  0  0  0  0  0  0  0  0  0  0  0
   -1.4560    9.2400   -3.1480 N   0  0  0  0  0  0  0  0  0  0  0  0
   -2.7560    9.4150   -3.4390 C   0  0  0  0  0  0  0  0  0  0  0  0
   -3.3210    9.0660   -4.6420 C   0  0  0  0  0  0  0  0  0  0  0  0
   -2.4620    8.4890   -5.5530 C   0  0  0  0  0  0  0  0  0  0  0  0
   -1.1470    8.3060   -5.2860 N   0  0  0  0  0  0  0  0  0  0  0  0
   -2.9000    8.0810   -6.9040 C   0  0  0  0  0  0  0  0  0  0  0  0
   -2.0170    8.2600   -7.9930 C   0  0  0  0  0  0  0  0  0  0  0  0
   -2.3830    7.9320   -9.3010 C   0  0  0  0  0  0  0  0  0  0  0  0
   -3.6490    7.4200   -9.5490 C   0  0  0  0  0  0  0  0  0  0  0  0
   -4.1150    7.0280  -11.1590 Cl  0  0  0  0  0  0  0  0  0  0  0  0
   -4.5430    7.2210   -8.5030 C   0  0  0  0  0  0  0  0  0  0  0  0
   -4.1720    7.5320   -7.1810 C   0  0  0  0  0  0  0  0  0  0  0  0
   -5.1730    7.2370   -6.1020 C   0  0  0  0  0  0  0  0  0  0  0  0
   -5.8910    5.9380   -6.1620 C   0  0  0  0  0  0  0  0  0  0  0  0
   -5.2150    4.7450   -5.9150 C   0  0  0  0  0  0  0  0  0  0  0  0
   -3.9030    4.7430   -5.6390 F   0  0  0  0  0  0  0  0  0  0  0  0
   -5.8870    3.5230   -5.9480 C   0  0  0  0  0  0  0  0  0  0  0  0
   -7.2530    3.4900   -6.2260 C   0  0  0  0  0  0  0  0  0  0  0  0
   -7.9380    4.6810   -6.4750 C   0  0  0  0  0  0  0  0  0  0  0  0
   -7.2560    5.8980   -6.4400 C   0  0  0  0  0  0  0  0  0  0  0  0
   -7.9380    7.0160   -6.7250 F   0  0  0  0  0  0  0  0  0  0  0  0
   -5.4620    8.0110   -5.1090 N   0  0  0  0  0  0  0  0  0  0  0  0
   -4.7630    9.2780   -4.9500 C   0  0  0  0  0  0  0  0  0  0  0  0
    1.8930    9.8910   -2.2840 C   0  0  0  0  0  0  0  0  0  0  0  0
    3.0040   10.6950   -1.9890 C   0  0  0  0  0  0  0  0  0  0  0  0
    4.6753   10.4163   -4.9365 H   0  0  0  0  0  0  0  0  0  0  0  0
    2.7091    8.9961   -5.4550 H   0  0  0  0  0  0  0  0  0  0  0  0
    0.8810    7.4830   -4.0430 H   0  0  0  0  0  0  0  0  0  0  0  0
   -3.4043    9.8627   -2.6713 H   0  0  0  0  0  0  0  0  0  0  0  0
   -1.0133    8.6691   -7.8055 H   0  0  0  0  0  0  0  0  0  0  0  0
   -1.6729    8.0785  -10.1282 H   0  0  0  0  0  0  0  0  0  0  0  0
   -5.5456    6.8184   -8.7095 H   0  0  0  0  0  0  0  0  0  0  0  0
   -5.3407    2.5879   -5.7552 H   0  0  0  0  0  0  0  0  0  0  0  0
   -7.7888    2.5296   -6.2491 H   0  0  0  0  0  0  0  0  0  0  0  0
   -9.0148    4.6600   -6.6987 H   0  0  0  0  0  0  0  0  0  0  0  0
   -4.8491    9.8542   -5.8830 H   0  0  0  0  0  0  0  0  0  0  0  0
   -5.2204    9.8239   -4.1117 H   0  0  0  0  0  0  0  0  0  0  0  0
    1.1109    9.7503   -1.5234 H   0  0  0  0  0  0  0  0  0  0  0  0
    3.0780   11.1718   -1.0005 H   0  0  0  0  0  0  0  0  0  0  0  0
  1  2  2  0
  2  3  1  0
  2  4  1  0
  4  5  2  0
  5  6  1  0
  6  7  2  0
  7  8  1  0
  8  9  1  0
  9 10  2  0
 10 11  1  0
 11 12  2  0
 12 13  1  0
 13 14  2  0
 13 15  1  0
 15 16  2  0
 16 17  1  0
 17 18  2  0
 18 19  1  0
 18 20  1  0
 20 21  2  0
 21 22  1  0
 22 23  1  0
 23 24  2  0
 24 25  1  0
 24 26  1  0
 26 27  2  0
 27 28  1  0
 28 29  2  0
 29 30  1  0
 22 31  2  0
 31 32  1  0
  7 33  1  0
 33 34  2  0
 34  4  1  0
 14  9  1  0
 21 15  1  0
 29 23  1  0
 32 12  1  0
  5 35  1  0
  6 36  1  0
  8 37  1  0
 11 38  1  0
 16 39  1  0
 17 40  1  0
 20 41  1  0
 26 42  1  0
 27 43  1  0
 28 44  1  0
 32 45  1  0
 32 46  1  0
 33 47  1  0
 34 48  1  0
M  CHG  1   3  -1
M  END
>  <meeko>  (6) 
{"is_sidechain": [false], "free_energy": -8.03, "intermolecular_energy": -10.041, "internal_energy": -1.104}

$$$$
2wtv_ligand
     RDKit          3D

 48 52  0  0  0  0  0  0  0  0999 V2000
   -4.0060    2.6640  -10.8000 O   0  0  0  0  0  0  0  0  0  0  0  0
   -4.3040    3.5860   -9.9750 C   0  0  0  0  0  0  0  0  0  0  0  0
   -5.4800    3.9840   -9.6990 O   0  0  0  0  0  0  0  0  0  0  0  0
   -3.1530    4.2690   -9.2590 C   0  0  0  0  0  0  0  0  0  0  0  0
   -3.1560    4.4160   -7.8670 C   0  0  0  0  0  0  0  0  0  0  0  0
   -2.0940    5.0480   -7.2090 C   0  0  0  0  0  0  0  0  0  0  0  0
   -0.9910    5.5560   -7.9160 C   0  0  0  0  0  0  0  0  0  0  0  0
    0.0300    6.1840   -7.1920 N   0  0  0  0  0  0  0  0  0  0  0  0
    0.2900    7.4970   -6.8170 C   0  0  0  0  0  0  0  0  0  0  0  0
    0.4300    8.4830   -7.7100 N   0  0  0  0  0  0  0  0  0  0  0  0
    0.6770    9.7180   -7.2410 C   0  0  0  0  0  0  0  0  0  0  0  0
    0.7790   10.0190   -5.9030 C   0  0  0  0  0  0  0  0  0  0  0  0
    0.6320    8.9500   -5.0440 C   0  0  0  0  0  0  0  0  0  0  0  0
    0.3780    7.6970   -5.4910 N   0  0  0  0  0  0  0  0  0  0  0  0
    0.6850    9.1030   -3.5760 C   0  0  0  0  0  0  0  0  0  0  0  0
   -0.1800    8.3250   -2.7740 C   0  0  0  0  0  0  0  0  0  0  0  0
   -0.2080    8.4490   -1.3820 C   0  0  0  0  0  0  0  0  0  0  0  0
    0.6300    9.3630   -0.7610 C   0  0  0  0  0  0  0  0  0  0  0  0
    0.5910    9.5350    0.9510 Cl  0  0  0  0  0  0  0  0  0  0  0  0
    1.5020   10.1410   -1.5140 C   0  0  0  0  0  0  0  0  0  0  0  0
    1.5470   10.0060   -2.9140 C   0  0  0  0  0  0  0  0  0  0  0  0
    2.5550   10.8410   -3.6500 C   0  0  0  0  0  0  0  0  0  0  0  0
    3.9230   10.9370   -3.0790 C   0  0  0  0  0  0  0  0  0  0  0  0
    4.9950   10.3000   -3.7030 C   0  0  0  0  0  0  0  0  0  0  0  0
    4.8110    9.5760   -4.8150 F   0  0  0  0  0  0  0  0  0  0  0  0
    6.2860   10.4040   -3.1850 C   0  0  0  0  0  0  0  0  0  0  0  0
    6.5130   11.1550   -2.0320 C   0  0  0  0  0  0  0  0  0  0  0  0
    5.4450   11.7950   -1.4010 C   0  0  0  0  0  0  0  0  0  0  0  0
    4.1570   11.6860   -1.9280 C   0  0  0  0  0  0  0  0  0  0  0  0
    3.1500   12.2790   -1.2710 F   0  0  0  0  0  0  0  0  0  0  0  0
    2.3440   11.4820   -4.7510 N   0  0  0  0  0  0  0  0  0  0  0  0
    1.0440   11.3960   -5.4020 C   0  0  0  0  0  0  0  0  0  0  0  0
   -0.9920    5.4070   -9.3040 C   0  0  0  0  0  0  0  0  0  0  0  0
   -2.0540    4.7740   -9.9660 C   0  0  0  0  0  0  0  0  0  0  0  0
   -4.0040    4.0299   -7.2823 H   0  0  0  0  0  0  0  0  0  0  0  0
   -2.1237    5.1491   -6.1141 H   0  0  0  0  0  0  0  0  0  0  0  0
    0.7700    5.5880   -6.8590 H   0  0  0  0  0  0  0  0  0  0  0  0
    0.8047   10.5336   -7.9680 H   0  0  0  0  0  0  0  0  0  0  0  0
   -0.8508    7.6007   -3.2592 H   0  0  0  0  0  0  0  0  0  0  0  0
   -0.8895    7.8264   -0.7837 H   0  0  0  0  0  0  0  0  0  0  0  0
    2.1603   10.8659   -1.0128 H   0  0  0  0  0  0  0  0  0  0  0  0
    7.1232    9.8948   -3.6849 H   0  0  0  0  0  0  0  0  0  0  0  0
    7.5297   11.2427   -1.6214 H   0  0  0  0  0  0  0  0  0  0  0  0
    5.6182   12.3850   -0.4889 H   0  0  0  0  0  0  0  0  0  0  0  0
    0.2622   11.6705   -4.6785 H   0  0  0  0  0  0  0  0  0  0  0  0
    1.0396   12.0842   -6.2601 H   0  0  0  0  0  0  0  0  0  0  0  0
   -0.1443    5.7931   -9.8891 H   0  0  0  0  0  0  0  0  0  0  0  0
   -2.0235    4.6721  -11.0608 H   0  0  0  0  0  0  0  0  0  0  0  0
  1  2  2  0
  2  3  1  0
  2  4  1  0
  4  5  2  0
  5  6  1  0
  6  7  2  0
  7  8  1  0
  8  9  1  0
  9 10  2  0
 10 11  1  0
 11 12  2  0
 12 13  1  0
 13 14  2  0
 13 15  1  0
 15 16  2  0
 16 17  1  0
 17 18  2  0
 18 19  1  0
 18 20  1  0
 20 21  2  0
 21 22  1  0
 22 23  1  0
 23 24  2  0
 24 25  1  0
 24 26  1  0
 26 27  2  0
 27 28  1  0
 28 29  2  0
 29 30  1  0
 22 31  2  0
 31 32  1  0
  7 33  1  0
 33 34  2  0
 34  4  1  0
 14  9  1  0
 21 15  1  0
 29 23  1  0
 32 12  1  0
  5 35  1  0
  6 36  1  0
  8 37  1  0
 11 38  1  0
 16 39  1  0
 17 40  1  0
 20 41  1  0
 26 42  1  0
 27 43  1  0
 28 44  1  0
 32 45  1  0
 32 46  1  0
 33 47  1  0
 34 48  1  0
M  CHG  1   3  -1
M  END
>  <meeko>  (7) 
{"is_sidechain": [false], "free_energy": -7.977, "intermolecular_energy": -10.782, "internal_energy": -0.297}

$$$$
2wtv_ligand
     RDKit          3D

 48 52  0  0  0  0  0  0  0  0999 V2000
  -10.0810    8.3890   -0.1650 O   0  0  0  0  0  0  0  0  0  0  0  0
  -10.0070    9.4380   -0.8820 C   0  0  0  0  0  0  0  0  0  0  0  0
  -10.7990   10.4320   -0.8270 O   0  0  0  0  0  0  0  0  0  0  0  0
   -8.8740    9.5070   -1.8880 C   0  0  0  0  0  0  0  0  0  0  0  0
   -8.4810    8.3740   -2.6100 C   0  0  0  0  0  0  0  0  0  0  0  0
   -7.4330    8.4400   -3.5370 C   0  0  0  0  0  0  0  0  0  0  0  0
   -6.7400    9.6380   -3.7780 C   0  0  0  0  0  0  0  0  0  0  0  0
   -5.6980    9.6270   -4.7120 N   0  0  0  0  0  0  0  0  0  0  0  0
   -4.5090    8.9180   -4.8340 C   0  0  0  0  0  0  0  0  0  0  0  0
   -3.4600    9.1350   -4.0320 N   0  0  0  0  0  0  0  0  0  0  0  0
   -2.3580    8.3930   -4.2330 C   0  0  0  0  0  0  0  0  0  0  0  0
   -2.2590    7.4230   -5.2020 C   0  0  0  0  0  0  0  0  0  0  0  0
   -3.3760    7.2630   -5.9950 C   0  0  0  0  0  0  0  0  0  0  0  0
   -4.5000    7.9950   -5.8100 N   0  0  0  0  0  0  0  0  0  0  0  0
   -3.4470    6.2460   -7.0640 C   0  0  0  0  0  0  0  0  0  0  0  0
   -4.6680    5.5700   -7.2860 C   0  0  0  0  0  0  0  0  0  0  0  0
   -4.7930    4.5700   -8.2540 C   0  0  0  0  0  0  0  0  0  0  0  0
   -3.6920    4.2200   -9.0210 C   0  0  0  0  0  0  0  0  0  0  0  0
   -3.8310    2.9790  -10.2050 Cl  0  0  0  0  0  0  0  0  0  0  0  0
   -2.4750    4.8690   -8.8400 C   0  0  0  0  0  0  0  0  0  0  0  0
   -2.3490    5.8900   -7.8780 C   0  0  0  0  0  0  0  0  0  0  0  0
   -1.0190    6.5790   -7.7820 C   0  0  0  0  0  0  0  0  0  0  0  0
   -0.3410    6.9530   -9.0490 C   0  0  0  0  0  0  0  0  0  0  0  0
    0.8860    6.3840   -9.3890 C   0  0  0  0  0  0  0  0  0  0  0  0
    1.4860    5.5070   -8.5730 F   0  0  0  0  0  0  0  0  0  0  0  0
    1.5170    6.7140  -10.5880 C   0  0  0  0  0  0  0  0  0  0  0  0
    0.9170    7.6190  -11.4630 C   0  0  0  0  0  0  0  0  0  0  0  0
   -0.3110    8.1930  -11.1300 C   0  0  0  0  0  0  0  0  0  0  0  0
   -0.9350    7.8570   -9.9280 C   0  0  0  0  0  0  0  0  0  0  0  0
   -2.0920    8.4600   -9.6230 F   0  0  0  0  0  0  0  0  0  0  0  0
   -0.4080    6.8890   -6.6870 N   0  0  0  0  0  0  0  0  0  0  0  0
   -1.0310    6.6030   -5.4020 C   0  0  0  0  0  0  0  0  0  0  0  0
   -7.1360   10.7660   -3.0560 C   0  0  0  0  0  0  0  0  0  0  0  0
   -8.1850   10.7040   -2.1270 C   0  0  0  0  0  0  0  0  0  0  0  0
   -9.0021    7.4191   -2.4472 H   0  0  0  0  0  0  0  0  0  0  0  0
   -7.1460    7.5329   -4.0890 H   0  0  0  0  0  0  0  0  0  0  0  0
   -5.7840   10.2720   -5.4820 H   0  0  0  0  0  0  0  0  0  0  0  0
   -1.4865    8.5717   -3.5861 H   0  0  0  0  0  0  0  0  0  0  0  0
   -5.5453    5.8388   -6.6793 H   0  0  0  0  0  0  0  0  0  0  0  0
   -5.7578    4.0641   -8.4065 H   0  0  0  0  0  0  0  0  0  0  0  0
   -1.6064    4.5833   -9.4515 H   0  0  0  0  0  0  0  0  0  0  0  0
    2.4865    6.2612  -10.8432 H   0  0  0  0  0  0  0  0  0  0  0  0
    1.4093    7.8794  -12.4116 H   0  0  0  0  0  0  0  0  0  0  0  0
   -0.7868    8.9102  -11.8151 H   0  0  0  0  0  0  0  0  0  0  0  0
   -1.3014    5.5374   -5.3640 H   0  0  0  0  0  0  0  0  0  0  0  0
   -0.3141    6.8509   -4.6054 H   0  0  0  0  0  0  0  0  0  0  0  0
   -6.6153   11.7212   -3.2190 H   0  0  0  0  0  0  0  0  0  0  0  0
   -8.4723   11.6115   -1.5758 H   0  0  0  0  0  0  0  0  0  0  0  0
  1  2  2  0
  2  3  1  0
  2  4  1  0
  4  5  2  0
  5  6  1  0
  6  7  2  0
  7  8  1  0
  8  9  1  0
  9 10  2  0
 10 11  1  0
 11 12  2  0
 12 13  1  0
 13 14  2  0
 13 15  1  0
 15 16  2  0
 16 17  1  0
 17 18  2  0
 18 19  1  0
 18 20  1  0
 20 21  2  0
 21 22  1  0
 22 23  1  0
 23 24  2  0
 24 25  1  0
 24 26  1  0
 26 27  2  0
 27 28  1  0
 28 29  2  0
 29 30  1  0
 22 31  2  0
 31 32  1  0
  7 33  1  0
 33 34  2  0
 34  4  1  0
 14  9  1  0
 21 15  1  0
 29 23  1  0
 32 12  1  0
  5 35  1  0
  6 36  1  0
  8 37  1  0
 11 38  1  0
 16 39  1  0
 17 40  1  0
 20 41  1  0
 26 42  1  0
 27 43  1  0
 28 44  1  0
 32 45  1  0
 32 46  1  0
 33 47  1  0
 34 48  1  0
M  CHG  1   3  -1
M  END
>  <meeko>  (8) 
{"is_sidechain": [false], "free_energy": -7.927, "intermolecular_energy": -9.96, "internal_energy": -1.058}

$$$$
2wtv_ligand
     RDKit          3D

 48 52  0  0  0  0  0  0  0  0999 V2000
    2.9210   11.1300   -0.0560 O   0  0  0  0  0  0  0  0  0  0  0  0
    3.0430   11.1020   -1.3230 C   0  0  0  0  0  0  0  0  0  0  0  0
    4.0980   11.3880   -1.9730 O   0  0  0  0  0  0  0  0  0  0  0  0
    1.8220   10.6930   -2.1240 C   0  0  0  0  0  0  0  0  0  0  0  0
    0.5520   10.6610   -1.5370 C   0  0  0  0  0  0  0  0  0  0  0  0
   -0.5730   10.2800   -2.2790 C   0  0  0  0  0  0  0  0  0  0  0  0
   -0.4720    9.9180   -3.6320 C   0  0  0  0  0  0  0  0  0  0  0  0
   -1.6380    9.5400   -4.3090 N   0  0  0  0  0  0  0  0  0  0  0  0
   -2.0450    8.3930   -4.9790 C   0  0  0  0  0  0  0  0  0  0  0  0
   -1.1740    7.5130   -5.4860 N   0  0  0  0  0  0  0  0  0  0  0  0
   -1.6720    6.4340   -6.1140 C   0  0  0  0  0  0  0  0  0  0  0  0
   -3.0170    6.1850   -6.2490 C   0  0  0  0  0  0  0  0  0  0  0  0
   -3.8520    7.1400   -5.7090 C   0  0  0  0  0  0  0  0  0  0  0  0
   -3.3760    8.2330   -5.0670 N   0  0  0  0  0  0  0  0  0  0  0  0
   -5.3240    7.0130   -5.7410 C   0  0  0  0  0  0  0  0  0  0  0  0
   -6.0740    7.4510   -4.6270 C   0  0  0  0  0  0  0  0  0  0  0  0
   -7.4650    7.3240   -4.5770 C   0  0  0  0  0  0  0  0  0  0  0  0
   -8.1370    6.7470   -5.6440 C   0  0  0  0  0  0  0  0  0  0  0  0
   -9.8480    6.5700   -5.5850 Cl  0  0  0  0  0  0  0  0  0  0  0  0
   -7.4360    6.3100   -6.7630 C   0  0  0  0  0  0  0  0  0  0  0  0
   -6.0370    6.4540   -6.8250 C   0  0  0  0  0  0  0  0  0  0  0  0
   -5.3600    6.0100   -8.0900 C   0  0  0  0  0  0  0  0  0  0  0  0
   -5.9930    6.3820   -9.3800 C   0  0  0  0  0  0  0  0  0  0  0  0
   -5.6600    7.5800  -10.0100 C   0  0  0  0  0  0  0  0  0  0  0  0
   -4.7810    8.4270   -9.4570 F   0  0  0  0  0  0  0  0  0  0  0  0
   -6.2330    7.9270  -11.2340 C   0  0  0  0  0  0  0  0  0  0  0  0
   -7.1470    7.0650  -11.8400 C   0  0  0  0  0  0  0  0  0  0  0  0
   -7.4860    5.8640  -11.2160 C   0  0  0  0  0  0  0  0  0  0  0  0
   -6.9070    5.5270   -9.9920 C   0  0  0  0  0  0  0  0  0  0  0  0
   -7.2880    4.3850   -9.4030 F   0  0  0  0  0  0  0  0  0  0  0  0
   -4.2600    5.3350   -8.1590 N   0  0  0  0  0  0  0  0  0  0  0  0
   -3.5500    4.9770   -6.9390 C   0  0  0  0  0  0  0  0  0  0  0  0
    0.7970    9.9520   -4.2140 C   0  0  0  0  0  0  0  0  0  0  0  0
    1.9260   10.3330   -3.4750 C   0  0  0  0  0  0  0  0  0  0  0  0
    0.4359   10.9387   -0.4790 H   0  0  0  0  0  0  0  0  0  0  0  0
   -1.5585   10.2639   -1.7906 H   0  0  0  0  0  0  0  0  0  0  0  0
   -2.3700   10.2310   -4.3530 H   0  0  0  0  0  0  0  0  0  0  0  0
   -0.9639    5.7101   -6.5437 H   0  0  0  0  0  0  0  0  0  0  0  0
   -5.5481    7.9051   -3.7742 H   0  0  0  0  0  0  0  0  0  0  0  0
   -8.0226    7.6791   -3.6978 H   0  0  0  0  0  0  0  0  0  0  0  0
   -7.9770    5.8500   -7.6030 H   0  0  0  0  0  0  0  0  0  0  0  0
   -5.9649    8.8770  -11.7194 H   0  0  0  0  0  0  0  0  0  0  0  0
   -7.5991    7.3312  -12.8068 H   0  0  0  0  0  0  0  0  0  0  0  0
   -8.2093    5.1832  -11.6887 H   0  0  0  0  0  0  0  0  0  0  0  0
   -4.2415    4.4536   -6.2623 H   0  0  0  0  0  0  0  0  0  0  0  0
   -2.7031    4.3284   -7.2076 H   0  0  0  0  0  0  0  0  0  0  0  0
    0.9130    9.6747   -5.2721 H   0  0  0  0  0  0  0  0  0  0  0  0
    2.9112   10.3498   -3.9641 H   0  0  0  0  0  0  0  0  0  0  0  0
  1  2  2  0
  2  3  1  0
  2  4  1  0
  4  5  2  0
  5  6  1  0
  6  7  2  0
  7  8  1  0
  8  9  1  0
  9 10  2  0
 10 11  1  0
 11 12  2  0
 12 13  1  0
 13 14  2  0
 13 15  1  0
 15 16  2  0
 16 17  1  0
 17 18  2  0
 18 19  1  0
 18 20  1  0
 20 21  2  0
 21 22  1  0
 22 23  1  0
 23 24  2  0
 24 25  1  0
 24 26  1  0
 26 27  2  0
 27 28  1  0
 28 29  2  0
 29 30  1  0
 22 31  2  0
 31 32  1  0
  7 33  1  0
 33 34  2  0
 34  4  1  0
 14  9  1  0
 21 15  1  0
 29 23  1  0
 32 12  1  0
  5 35  1  0
  6 36  1  0
  8 37  1  0
 11 38  1  0
 16 39  1  0
 17 40  1  0
 20 41  1  0
 26 42  1  0
 27 43  1  0
 28 44  1  0
 32 45  1  0
 32 46  1  0
 33 47  1  0
 34 48  1  0
M  CHG  1   3  -1
M  END
>  <meeko>  (9) 
{"is_sidechain": [false], "free_energy": -7.808, "intermolecular_energy": -9.931, "internal_energy": -0.939}

$$$$
