4ih7_ligand
     RDKit          3D

 34 35  0  0  0  0  0  0  0  0999 V2000
    3.4710   -6.2260   -5.1620 C   0  0  0  0  0  0  0  0  0  0  0  0
    3.7320   -6.5170   -3.6690 C   0  0  0  0  0  0  0  0  0  0  0  0
    5.2500   -6.3540   -3.4290 C   0  0  0  0  0  0  0  0  0  0  0  0
    3.3790   -7.9900   -3.3690 C   0  0  0  0  0  0  0  0  0  0  0  0
    2.8630   -5.5890   -2.8020 C   0  0  0  0  0  0  0  0  0  0  0  0
    3.4040   -4.5560   -2.0200 C   0  0  0  0  0  0  0  0  0  0  0  0
    2.5840   -3.7250   -1.2520 C   0  0  0  0  0  0  0  0  0  0  0  0
    1.2030   -3.9090   -1.2430 C   0  0  0  0  0  0  0  0  0  0  0  0
    0.6230   -4.9290   -2.0010 C   0  0  0  0  0  0  0  0  0  0  0  0
   -0.8380   -5.1340   -1.9860 C   0  0  0  0  0  0  0  0  0  0  0  0
   -1.3970   -6.0120   -1.1280 C   0  0  0  0  0  0  0  0  0  0  0  0
   -2.8240   -6.2290   -1.0800 C   0  0  0  0  0  0  0  0  0  0  0  0
   -3.6300   -5.5390   -1.8930 C   0  0  0  0  0  0  0  0  0  0  0  0
   -3.1040   -4.6300   -2.7710 N   0  0  0  0  0  0  0  0  0  0  0  0
   -1.7590   -4.3560   -2.8930 C   0  0  0  0  0  0  0  0  0  0  0  0
   -1.3580   -3.5220   -3.6990 O   0  0  0  0  0  0  0  0  0  0  0  0
    1.4600   -5.7530   -2.7760 C   0  0  0  0  0  0  0  0  0  0  0  0
    2.7391   -5.4100   -5.2540 H   0  0  0  0  0  0  0  0  0  0  0  0
    4.4125   -5.9306   -5.6481 H   0  0  0  0  0  0  0  0  0  0  0  0
    3.0753   -7.1300   -5.6481 H   0  0  0  0  0  0  0  0  0  0  0  0
    5.4500   -6.3325   -2.3476 H   0  0  0  0  0  0  0  0  0  0  0  0
    5.7861   -7.1997   -3.8843 H   0  0  0  0  0  0  0  0  0  0  0  0
    5.5943   -5.4137   -3.8843 H   0  0  0  0  0  0  0  0  0  0  0  0
    3.3421   -8.1438   -2.2804 H   0  0  0  0  0  0  0  0  0  0  0  0
    2.3983   -8.2284   -3.8064 H   0  0  0  0  0  0  0  0  0  0  0  0
    4.1451   -8.6471   -3.8064 H   0  0  0  0  0  0  0  0  0  0  0  0
    4.4926   -4.3980   -2.0117 H   0  0  0  0  0  0  0  0  0  0  0  0
    3.0319   -2.9202   -0.6505 H   0  0  0  0  0  0  0  0  0  0  0  0
    0.5665   -3.2481   -0.6363 H   0  0  0  0  0  0  0  0  0  0  0  0
   -0.7472   -6.5791   -0.4452 H   0  0  0  0  0  0  0  0  0  0  0  0
   -3.2468   -6.9607   -0.3758 H   0  0  0  0  0  0  0  0  0  0  0  0
   -4.7173   -5.7018   -1.8565 H   0  0  0  0  0  0  0  0  0  0  0  0
   -3.7090   -4.1040   -3.3880 H   0  0  0  0  0  0  0  0  0  0  0  0
    1.0068   -6.5515   -3.3818 H   0  0  0  0  0  0  0  0  0  0  0  0
  1  2  1  0
  2  3  1  0
  2  4  1  0
  2  5  1  0
  5  6  2  0
  6  7  1  0
  7  8  2  0
  8  9  1  0
  9 10  1  0
 10 11  2  0
 11 12  1  0
 12 13  2  0
 13 14  1  0
 14 15  1  0
 15 16  2  0
  9 17  2  0
 17  5  1  0
 15 10  1  0
  1 18  1  0
  1 19  1  0
  1 20  1  0
  3 21  1  0
  3 22  1  0
  3 23  1  0
  4 24  1  0
  4 25  1  0
  4 26  1  0
  6 27  1  0
  7 28  1  0
  8 29  1  0
 11 30  1  0
 12 31  1  0
 13 32  1  0
 14 33  1  0
 17 34  1  0
M  END
>  <meeko>  (1) 
{"is_sidechain": [false], "free_energy": -6.107, "intermolecular_energy": -6.821, "internal_energy": -0.58}

$$$$
4ih7_ligand
     RDKit          3D

 34 35  0  0  0  0  0  0  0  0999 V2000
   -0.1670   -1.5570   -1.0120 C   0  0  0  0  0  0  0  0  0  0  0  0
   -1.5020   -2.1910   -1.4610 C   0  0  0  0  0  0  0  0  0  0  0  0
   -1.8580   -1.5820   -2.8350 C   0  0  0  0  0  0  0  0  0  0  0  0
   -2.6180   -1.7790   -0.4760 C   0  0  0  0  0  0  0  0  0  0  0  0
   -1.3650   -3.7240   -1.4760 C   0  0  0  0  0  0  0  0  0  0  0  0
   -2.4480   -4.5840   -1.2350 C   0  0  0  0  0  0  0  0  0  0  0  0
   -2.2920   -5.9720   -1.2670 C   0  0  0  0  0  0  0  0  0  0  0  0
   -1.0470   -6.5350   -1.5370 C   0  0  0  0  0  0  0  0  0  0  0  0
    0.0600   -5.7180   -1.7760 C   0  0  0  0  0  0  0  0  0  0  0  0
    1.3830   -6.3100   -2.0520 C   0  0  0  0  0  0  0  0  0  0  0  0
    1.7370   -6.6370   -3.3120 C   0  0  0  0  0  0  0  0  0  0  0  0
    3.0290   -7.2070   -3.6180 C   0  0  0  0  0  0  0  0  0  0  0  0
    3.9150   -7.4130   -2.6390 C   0  0  0  0  0  0  0  0  0  0  0  0
    3.5980   -7.0850   -1.3480 N   0  0  0  0  0  0  0  0  0  0  0  0
    2.3940   -6.5390   -0.9570 C   0  0  0  0  0  0  0  0  0  0  0  0
    2.1820   -6.2640    0.2200 O   0  0  0  0  0  0  0  0  0  0  0  0
   -0.1150   -4.3220   -1.7490 C   0  0  0  0  0  0  0  0  0  0  0  0
   -0.1224   -1.5358    0.0869 H   0  0  0  0  0  0  0  0  0  0  0  0
    0.6714   -2.1531   -1.4016 H   0  0  0  0  0  0  0  0  0  0  0  0
   -0.0992   -0.5305   -1.4016 H   0  0  0  0  0  0  0  0  0  0  0  0
   -2.4081   -0.6409   -2.6875 H   0  0  0  0  0  0  0  0  0  0  0  0
   -0.9343   -1.3824   -3.3980 H   0  0  0  0  0  0  0  0  0  0  0  0
   -2.4851   -2.2889   -3.3980 H   0  0  0  0  0  0  0  0  0  0  0  0
   -2.2625   -1.9103    0.5566 H   0  0  0  0  0  0  0  0  0  0  0  0
   -2.8821   -0.7241   -0.6416 H   0  0  0  0  0  0  0  0  0  0  0  0
   -3.5042   -2.4092   -0.6416 H   0  0  0  0  0  0  0  0  0  0  0  0
   -3.4380   -4.1571   -1.0169 H   0  0  0  0  0  0  0  0  0  0  0  0
   -3.1575   -6.6240   -1.0778 H   0  0  0  0  0  0  0  0  0  0  0  0
   -0.9351   -7.6290   -1.5621 H   0  0  0  0  0  0  0  0  0  0  0  0
    1.0217   -6.4648   -4.1297 H   0  0  0  0  0  0  0  0  0  0  0  0
    3.2829   -7.4710   -4.6552 H   0  0  0  0  0  0  0  0  0  0  0  0
    4.8993   -7.8462   -2.8704 H   0  0  0  0  0  0  0  0  0  0  0  0
    4.2660   -7.2370   -0.6020 H   0  0  0  0  0  0  0  0  0  0  0  0
    0.7516   -3.6742   -1.9474 H   0  0  0  0  0  0  0  0  0  0  0  0
  1  2  1  0
  2  3  1  0
  2  4  1  0
  2  5  1  0
  5  6  2  0
  6  7  1  0
  7  8  2  0
  8  9  1  0
  9 10  1  0
 10 11  2  0
 11 12  1  0
 12 13  2  0
 13 14  1  0
 14 15  1  0
 15 16  2  0
  9 17  2  0
 17  5  1  0
 15 10  1  0
  1 18  1  0
  1 19  1  0
  1 20  1  0
  3 21  1  0
  3 22  1  0
  3 23  1  0
  4 24  1  0
  4 25  1  0
  4 26  1  0
  6 27  1  0
  7 28  1  0
  8 29  1  0
 11 30  1  0
 12 31  1  0
 13 32  1  0
 14 33  1  0
 17 34  1  0
M  END
>  <meeko>  (2) 
{"is_sidechain": [false], "free_energy": -5.969, "intermolecular_energy": -6.665, "internal_energy": -0.582}

$$$$
4ih7_ligand
     RDKit          3D

 34 35  0  0  0  0  0  0  0  0999 V2000
   -2.0630   -1.1600   -2.2590 C   0  0  0  0  0  0  0  0  0  0  0  0
   -1.7070   -2.0390   -1.0410 C   0  0  0  0  0  0  0  0  0  0  0  0
   -1.6910   -3.5070   -1.5240 C   0  0  0  0  0  0  0  0  0  0  0  0
   -2.8260   -1.9190    0.0170 C   0  0  0  0  0  0  0  0  0  0  0  0
   -0.3710   -1.5690   -0.4380 C   0  0  0  0  0  0  0  0  0  0  0  0
    0.8710   -1.8820   -1.0110 C   0  0  0  0  0  0  0  0  0  0  0  0
    2.0650   -1.4290   -0.4430 C   0  0  0  0  0  0  0  0  0  0  0  0
    2.0470   -0.6560    0.7150 C   0  0  0  0  0  0  0  0  0  0  0  0
    0.8330   -0.3270    1.3230 C   0  0  0  0  0  0  0  0  0  0  0  0
    0.8090    0.4830    2.5570 C   0  0  0  0  0  0  0  0  0  0  0  0
    1.0390   -0.0910    3.7560 C   0  0  0  0  0  0  0  0  0  0  0  0
    1.0340    0.6750    4.9810 C   0  0  0  0  0  0  0  0  0  0  0  0
    0.8090    1.9920    4.9430 C   0  0  0  0  0  0  0  0  0  0  0  0
    0.5830    2.6140    3.7450 N   0  0  0  0  0  0  0  0  0  0  0  0
    0.5650    1.9710    2.5260 C   0  0  0  0  0  0  0  0  0  0  0  0
    0.3610    2.5950    1.4890 O   0  0  0  0  0  0  0  0  0  0  0  0
   -0.3610   -0.7830    0.7350 C   0  0  0  0  0  0  0  0  0  0  0  0
   -2.4547   -0.1928   -1.9112 H   0  0  0  0  0  0  0  0  0  0  0  0
   -1.1615   -0.9933   -2.8669 H   0  0  0  0  0  0  0  0  0  0  0  0
   -2.8264   -1.6676   -2.8669 H   0  0  0  0  0  0  0  0  0  0  0  0
   -1.6837   -4.1794   -0.6534 H   0  0  0  0  0  0  0  0  0  0  0  0
   -2.5871   -3.7030   -2.1312 H   0  0  0  0  0  0  0  0  0  0  0  0
   -0.7909   -3.6834   -2.1312 H   0  0  0  0  0  0  0  0  0  0  0  0
   -2.3853   -1.9663    1.0238 H   0  0  0  0  0  0  0  0  0  0  0  0
   -3.3490   -0.9596   -0.1097 H   0  0  0  0  0  0  0  0  0  0  0  0
   -3.5405   -2.7457   -0.1097 H   0  0  0  0  0  0  0  0  0  0  0  0
    0.9056   -2.4950   -1.9237 H   0  0  0  0  0  0  0  0  0  0  0  0
    3.0255   -1.6849   -0.9140 H   0  0  0  0  0  0  0  0  0  0  0  0
    2.9924   -0.3030    1.1528 H   0  0  0  0  0  0  0  0  0  0  0  0
    1.2358   -1.1723    3.8023 H   0  0  0  0  0  0  0  0  0  0  0  0
    1.2152    0.1749    5.9439 H   0  0  0  0  0  0  0  0  0  0  0  0
    0.8055    2.5762    5.8750 H   0  0  0  0  0  0  0  0  0  0  0  0
    0.4130    3.6110    3.7090 H   0  0  0  0  0  0  0  0  0  0  0  0
   -1.3196   -0.5182    1.2051 H   0  0  0  0  0  0  0  0  0  0  0  0
  1  2  1  0
  2  3  1  0
  2  4  1  0
  2  5  1  0
  5  6  2  0
  6  7  1  0
  7  8  2  0
  8  9  1  0
  9 10  1  0
 10 11  2  0
 11 12  1  0
 12 13  2  0
 13 14  1  0
 14 15  1  0
 15 16  2  0
  9 17  2  0
 17  5  1  0
 15 10  1  0
  1 18  1  0
  1 19  1  0
  1 20  1  0
  3 21  1  0
  3 22  1  0
  3 23  1  0
  4 24  1  0
  4 25  1  0
  4 26  1  0
  6 27  1  0
  7 28  1  0
  8 29  1  0
 11 30  1  0
 12 31  1  0
 13 32  1  0
 14 33  1  0
 17 34  1  0
M  END
>  <meeko>  (3) 
{"is_sidechain": [false], "free_energy": -5.947, "intermolecular_energy": -6.649, "internal_energy": -0.573}

$$$$
4ih7_ligand
     RDKit          3D

 34 35  0  0  0  0  0  0  0  0999 V2000
    3.7530    7.0630    2.6530 C   0  0  0  0  0  0  0  0  0  0  0  0
    3.3050    6.2850    1.3970 C   0  0  0  0  0  0  0  0  0  0  0  0
    4.4880    5.3900    0.9660 C   0  0  0  0  0  0  0  0  0  0  0  0
    3.0470    7.2830    0.2460 C   0  0  0  0  0  0  0  0  0  0  0  0
    2.0150    5.5050    1.7050 C   0  0  0  0  0  0  0  0  0  0  0  0
    0.7390    5.9950    1.3860 C   0  0  0  0  0  0  0  0  0  0  0  0
   -0.4130    5.2550    1.6710 C   0  0  0  0  0  0  0  0  0  0  0  0
   -0.3160    4.0090    2.2850 C   0  0  0  0  0  0  0  0  0  0  0  0
    0.9330    3.4860    2.6260 C   0  0  0  0  0  0  0  0  0  0  0  0
    1.0400    2.1710    3.2870 C   0  0  0  0  0  0  0  0  0  0  0  0
    0.7610    1.0390    2.6080 C   0  0  0  0  0  0  0  0  0  0  0  0
    0.8660   -0.2640    3.2220 C   0  0  0  0  0  0  0  0  0  0  0  0
    1.2610   -0.3720    4.4940 C   0  0  0  0  0  0  0  0  0  0  0  0
    1.5640    0.7520    5.2140 N   0  0  0  0  0  0  0  0  0  0  0  0
    1.4920    2.0360    4.7200 C   0  0  0  0  0  0  0  0  0  0  0  0
    1.7840    2.9980    5.4230 O   0  0  0  0  0  0  0  0  0  0  0  0
    2.0840    4.2380    2.3260 C   0  0  0  0  0  0  0  0  0  0  0  0
    3.4384    6.5166    3.5544 H   0  0  0  0  0  0  0  0  0  0  0  0
    4.8482    7.1652    2.6498 H   0  0  0  0  0  0  0  0  0  0  0  0
    3.2916    8.0615    2.6498 H   0  0  0  0  0  0  0  0  0  0  0  0
    4.9996    5.0030    1.8596 H   0  0  0  0  0  0  0  0  0  0  0  0
    4.1115    4.5486    0.3657 H   0  0  0  0  0  0  0  0  0  0  0  0
    5.1953    5.9811    0.3657 H   0  0  0  0  0  0  0  0  0  0  0  0
    2.7924    8.2678    0.6647 H   0  0  0  0  0  0  0  0  0  0  0  0
    3.9520    7.3706   -0.3731 H   0  0  0  0  0  0  0  0  0  0  0  0
    2.2129    6.9211   -0.3731 H   0  0  0  0  0  0  0  0  0  0  0  0
    0.6434    6.9787    0.9032 H   0  0  0  0  0  0  0  0  0  0  0  0
   -1.4016    5.6597    1.4086 H   0  0  0  0  0  0  0  0  0  0  0  0
   -1.2280    3.4337    2.5025 H   0  0  0  0  0  0  0  0  0  0  0  0
    0.4446    1.1105    1.5569 H   0  0  0  0  0  0  0  0  0  0  0  0
    0.6210   -1.1667    2.6431 H   0  0  0  0  0  0  0  0  0  0  0  0
    1.3426   -1.3640    4.9624 H   0  0  0  0  0  0  0  0  0  0  0  0
    1.8640    0.6770    6.1790 H   0  0  0  0  0  0  0  0  0  0  0  0
    3.0706    3.8254    2.5837 H   0  0  0  0  0  0  0  0  0  0  0  0
  1  2  1  0
  2  3  1  0
  2  4  1  0
  2  5  1  0
  5  6  2  0
  6  7  1  0
  7  8  2  0
  8  9  1  0
  9 10  1  0
 10 11  2  0
 11 12  1  0
 12 13  2  0
 13 14  1  0
 14 15  1  0
 15 16  2  0
  9 17  2  0
 17  5  1  0
 15 10  1  0
  1 18  1  0
  1 19  1  0
  1 20  1  0
  3 21  1  0
  3 22  1  0
  3 23  1  0
  4 24  1  0
  4 25  1  0
  4 26  1  0
  6 27  1  0
  7 28  1  0
  8 29  1  0
 11 30  1  0
 12 31  1  0
 13 32  1  0
 14 33  1  0
 17 34  1  0
M  END
>  <meeko>  (4) 
{"is_sidechain": [false], "free_energy": -5.943, "intermolecular_energy": -6.709, "internal_energy": -0.509}

$$$$
4ih7_ligand
     RDKit          3D

 34 35  0  0  0  0  0  0  0  0999 V2000
   -2.1470   -1.7810   -1.1410 C   0  0  0  0  0  0  0  0  0  0  0  0
   -2.0290   -0.9660    0.1650 C   0  0  0  0  0  0  0  0  0  0  0  0
   -2.8210   -1.7260    1.2520 C   0  0  0  0  0  0  0  0  0  0  0  0
   -2.7160    0.4040   -0.0260 C   0  0  0  0  0  0  0  0  0  0  0  0
   -0.5440   -0.7570    0.5100 C   0  0  0  0  0  0  0  0  0  0  0  0
    0.4950   -1.3580   -0.2170 C   0  0  0  0  0  0  0  0  0  0  0  0
    1.8350   -1.1380    0.1170 C   0  0  0  0  0  0  0  0  0  0  0  0
    2.1680   -0.3150    1.1900 C   0  0  0  0  0  0  0  0  0  0  0  0
    1.1660    0.2980    1.9450 C   0  0  0  0  0  0  0  0  0  0  0  0
    1.5140    1.1620    3.0900 C   0  0  0  0  0  0  0  0  0  0  0  0
    1.7970    2.4670    2.9010 C   0  0  0  0  0  0  0  0  0  0  0  0
    2.1300    3.3430    4.0000 C   0  0  0  0  0  0  0  0  0  0  0  0
    2.1510    2.8660    5.2490 C   0  0  0  0  0  0  0  0  0  0  0  0
    1.8590    1.5500    5.4850 N   0  0  0  0  0  0  0  0  0  0  0  0
    1.5330    0.6380    4.5040 C   0  0  0  0  0  0  0  0  0  0  0  0
    1.2780   -0.5280    4.7900 O   0  0  0  0  0  0  0  0  0  0  0  0
   -0.1780    0.0740    1.5920 C   0  0  0  0  0  0  0  0  0  0  0  0
   -2.3007   -2.8428   -0.8980 H   0  0  0  0  0  0  0  0  0  0  0  0
   -3.0010   -1.4118   -1.7277 H   0  0  0  0  0  0  0  0  0  0  0  0
   -1.2233   -1.6691   -1.7277 H   0  0  0  0  0  0  0  0  0  0  0  0
   -2.4824   -1.4011    2.2469 H   0  0  0  0  0  0  0  0  0  0  0  0
   -3.8941   -1.5110    1.1416 H   0  0  0  0  0  0  0  0  0  0  0  0
   -2.6504   -2.8071    1.1416 H   0  0  0  0  0  0  0  0  0  0  0  0
   -2.9366    0.8439    0.9578 H   0  0  0  0  0  0  0  0  0  0  0  0
   -2.0475    1.0745   -0.5859 H   0  0  0  0  0  0  0  0  0  0  0  0
   -3.6532    0.2693   -0.5859 H   0  0  0  0  0  0  0  0  0  0  0  0
    0.2509   -2.0143   -1.0653 H   0  0  0  0  0  0  0  0  0  0  0  0
    2.6309   -1.6179   -0.4714 H   0  0  0  0  0  0  0  0  0  0  0  0
    3.2251   -0.1471    1.4439 H   0  0  0  0  0  0  0  0  0  0  0  0
    1.7735    2.8761    1.8802 H   0  0  0  0  0  0  0  0  0  0  0  0
    2.3659    4.4005    3.8099 H   0  0  0  0  0  0  0  0  0  0  0  0
    2.4032    3.5319    6.0874 H   0  0  0  0  0  0  0  0  0  0  0  0
    1.8730    1.1830    6.4280 H   0  0  0  0  0  0  0  0  0  0  0  0
   -0.9700    0.5626    2.1785 H   0  0  0  0  0  0  0  0  0  0  0  0
  1  2  1  0
  2  3  1  0
  2  4  1  0
  2  5  1  0
  5  6  2  0
  6  7  1  0
  7  8  2  0
  8  9  1  0
  9 10  1  0
 10 11  2  0
 11 12  1  0
 12 13  2  0
 13 14  1  0
 14 15  1  0
 15 16  2  0
  9 17  2  0
 17  5  1  0
 15 10  1  0
  1 18  1  0
  1 19  1  0
  1 20  1  0
  3 21  1  0
  3 22  1  0
  3 23  1  0
  4 24  1  0
  4 25  1  0
  4 26  1  0
  6 27  1  0
  7 28  1  0
  8 29  1  0
 11 30  1  0
 12 31  1  0
 13 32  1  0
 14 33  1  0
 17 34  1  0
M  END
>  <meeko>  (5) 
{"is_sidechain": [false], "free_energy": -5.937, "intermolecular_energy": -6.634, "internal_energy": -0.577}

$$$$
4ih7_ligand
     RDKit          3D

 34 35  0  0  0  0  0  0  0  0999 V2000
    2.1530   -4.2500   -2.0830 C   0  0  0  0  0  0  0  0  0  0  0  0
    1.2340   -5.4410   -1.7360 C   0  0  0  0  0  0  0  0  0  0  0  0
    1.8050   -6.1040   -0.4620 C   0  0  0  0  0  0  0  0  0  0  0  0
    1.3110   -6.4890   -2.8680 C   0  0  0  0  0  0  0  0  0  0  0  0
   -0.2160   -4.9490   -1.5840 C   0  0  0  0  0  0  0  0  0  0  0  0
   -1.3090   -5.8250   -1.5050 C   0  0  0  0  0  0  0  0  0  0  0  0
   -2.6140   -5.3440   -1.3570 C   0  0  0  0  0  0  0  0  0  0  0  0
   -2.8560   -3.9740   -1.2890 C   0  0  0  0  0  0  0  0  0  0  0  0
   -1.7980   -3.0660   -1.3700 C   0  0  0  0  0  0  0  0  0  0  0  0
   -2.0520   -1.6140   -1.3090 C   0  0  0  0  0  0  0  0  0  0  0  0
   -2.2090   -0.9960   -0.1200 C   0  0  0  0  0  0  0  0  0  0  0  0
   -2.4470    0.4260   -0.0240 C   0  0  0  0  0  0  0  0  0  0  0  0
   -2.5050    1.1680   -1.1340 C   0  0  0  0  0  0  0  0  0  0  0  0
   -2.3390    0.5810   -2.3600 N   0  0  0  0  0  0  0  0  0  0  0  0
   -2.1100   -0.7640   -2.5540 C   0  0  0  0  0  0  0  0  0  0  0  0
   -1.9650   -1.2210   -3.6840 O   0  0  0  0  0  0  0  0  0  0  0  0
   -0.4900   -3.5650   -1.5110 C   0  0  0  0  0  0  0  0  0  0  0  0
    2.5137   -3.7826   -1.1549 H   0  0  0  0  0  0  0  0  0  0  0  0
    3.0111   -4.6081   -2.6707 H   0  0  0  0  0  0  0  0  0  0  0  0
    1.5890   -3.5107   -2.6707 H   0  0  0  0  0  0  0  0  0  0  0  0
    1.3826   -5.6135    0.4274 H   0  0  0  0  0  0  0  0  0  0  0  0
    1.5389   -7.1713   -0.4533 H   0  0  0  0  0  0  0  0  0  0  0  0
    2.8999   -5.9991   -0.4533 H   0  0  0  0  0  0  0  0  0  0  0  0
    1.3850   -7.4958   -2.4312 H   0  0  0  0  0  0  0  0  0  0  0  0
    0.4057   -6.4246   -3.4895 H   0  0  0  0  0  0  0  0  0  0  0  0
    2.1972   -6.2930   -3.4895 H   0  0  0  0  0  0  0  0  0  0  0  0
   -1.1365   -6.9100   -1.5605 H   0  0  0  0  0  0  0  0  0  0  0  0
   -3.4539   -6.0516   -1.2940 H   0  0  0  0  0  0  0  0  0  0  0  0
   -3.8856   -3.6054   -1.1709 H   0  0  0  0  0  0  0  0  0  0  0  0
   -2.1542   -1.5919    0.8030 H   0  0  0  0  0  0  0  0  0  0  0  0
   -2.5802    0.8970    0.9611 H   0  0  0  0  0  0  0  0  0  0  0  0
   -2.6861    2.2506   -1.0628 H   0  0  0  0  0  0  0  0  0  0  0  0
   -2.3800    1.1380   -3.2050 H   0  0  0  0  0  0  0  0  0  0  0  0
    0.3473   -2.8537   -1.5662 H   0  0  0  0  0  0  0  0  0  0  0  0
  1  2  1  0
  2  3  1  0
  2  4  1  0
  2  5  1  0
  5  6  2  0
  6  7  1  0
  7  8  2  0
  8  9  1  0
  9 10  1  0
 10 11  2  0
 11 12  1  0
 12 13  2  0
 13 14  1  0
 14 15  1  0
 15 16  2  0
  9 17  2  0
 17  5  1  0
 15 10  1  0
  1 18  1  0
  1 19  1  0
  1 20  1  0
  3 21  1  0
  3 22  1  0
  3 23  1  0
  4 24  1  0
  4 25  1  0
  4 26  1  0
  6 27  1  0
  7 28  1  0
  8 29  1  0
 11 30  1  0
 12 31  1  0
 13 32  1  0
 14 33  1  0
 17 34  1  0
M  END
>  <meeko>  (6) 
{"is_sidechain": [false], "free_energy": -5.873, "intermolecular_energy": -6.565, "internal_energy": -0.575}

$$$$
4ih7_ligand
     RDKit          3D

 34 35  0  0  0  0  0  0  0  0999 V2000
    1.0340   -0.4340    4.5820 C   0  0  0  0  0  0  0  0  0  0  0  0
    1.2580    1.0150    4.0980 C   0  0  0  0  0  0  0  0  0  0  0  0
    2.7820    1.2710    4.1120 C   0  0  0  0  0  0  0  0  0  0  0  0
    0.6220    1.9930    5.1100 C   0  0  0  0  0  0  0  0  0  0  0  0
    0.6090    1.2040    2.7150 C   0  0  0  0  0  0  0  0  0  0  0  0
    0.4410    2.4660    2.1240 C   0  0  0  0  0  0  0  0  0  0  0  0
   -0.1440    2.6010    0.8610 C   0  0  0  0  0  0  0  0  0  0  0  0
   -0.5790    1.4780    0.1620 C   0  0  0  0  0  0  0  0  0  0  0  0
   -0.4380    0.2040    0.7160 C   0  0  0  0  0  0  0  0  0  0  0  0
   -0.9080   -0.9870   -0.0170 C   0  0  0  0  0  0  0  0  0  0  0  0
   -0.0520   -1.7080   -0.7710 C   0  0  0  0  0  0  0  0  0  0  0  0
   -0.4770   -2.8860   -1.4920 C   0  0  0  0  0  0  0  0  0  0  0  0
   -1.7470   -3.2940   -1.4120 C   0  0  0  0  0  0  0  0  0  0  0  0
   -2.6430   -2.5970   -0.6480 N   0  0  0  0  0  0  0  0  0  0  0  0
   -2.3360   -1.4630    0.0720 C   0  0  0  0  0  0  0  0  0  0  0  0
   -3.1920   -0.8910    0.7400 O   0  0  0  0  0  0  0  0  0  0  0  0
    0.1600    0.0830    1.9840 C   0  0  0  0  0  0  0  0  0  0  0  0
    1.0305   -0.4568    5.6818 H   0  0  0  0  0  0  0  0  0  0  0  0
    0.0684   -0.8015    4.2045 H   0  0  0  0  0  0  0  0  0  0  0  0
    1.8436   -1.0760    4.2045 H   0  0  0  0  0  0  0  0  0  0  0  0
    3.1343    1.3302    5.1524 H   0  0  0  0  0  0  0  0  0  0  0  0
    3.2970    0.4468    3.5968 H   0  0  0  0  0  0  0  0  0  0  0  0
    2.9994    2.2183    3.5968 H   0  0  0  0  0  0  0  0  0  0  0  0
    0.8415    1.6555    6.1337 H   0  0  0  0  0  0  0  0  0  0  0  0
    1.0387    2.9997    4.9586 H   0  0  0  0  0  0  0  0  0  0  0  0
   -0.4672    2.0204    4.9586 H   0  0  0  0  0  0  0  0  0  0  0  0
    0.7753    3.3644    2.6636 H   0  0  0  0  0  0  0  0  0  0  0  0
   -0.2613    3.6005    0.4170 H   0  0  0  0  0  0  0  0  0  0  0  0
   -1.0360    1.5951   -0.8317 H   0  0  0  0  0  0  0  0  0  0  0  0
    0.9989   -1.3900   -0.8387 H   0  0  0  0  0  0  0  0  0  0  0  0
    0.2438   -3.4461   -2.1058 H   0  0  0  0  0  0  0  0  0  0  0  0
   -2.0722   -4.1904   -1.9604 H   0  0  0  0  0  0  0  0  0  0  0  0
   -3.6070   -2.9020   -0.5820 H   0  0  0  0  0  0  0  0  0  0  0  0
    0.2817   -0.9193    2.4205 H   0  0  0  0  0  0  0  0  0  0  0  0
  1  2  1  0
  2  3  1  0
  2  4  1  0
  2  5  1  0
  5  6  2  0
  6  7  1  0
  7  8  2  0
  8  9  1  0
  9 10  1  0
 10 11  2  0
 11 12  1  0
 12 13  2  0
 13 14  1  0
 14 15  1  0
 15 16  2  0
  9 17  2  0
 17  5  1  0
 15 10  1  0
  1 18  1  0
  1 19  1  0
  1 20  1  0
  3 21  1  0
  3 22  1  0
  3 23  1  0
  4 24  1  0
  4 25  1  0
  4 26  1  0
  6 27  1  0
  7 28  1  0
  8 29  1  0
 11 30  1  0
 12 31  1  0
 13 32  1  0
 14 33  1  0
 17 34  1  0
M  END
>  <meeko>  (7) 
{"is_sidechain": [false], "free_energy": -5.843, "intermolecular_energy": -6.526, "internal_energy": -0.579}

$$$$
4ih7_ligand
     RDKit          3D

 34 35  0  0  0  0  0  0  0  0999 V2000
   -1.9780    3.3580    0.3720 C   0  0  0  0  0  0  0  0  0  0  0  0
   -1.5300    1.9380   -0.0400 C   0  0  0  0  0  0  0  0  0  0  0  0
   -1.0730    2.0130   -1.5140 C   0  0  0  0  0  0  0  0  0  0  0  0
   -2.7460    0.9870    0.0130 C   0  0  0  0  0  0  0  0  0  0  0  0
   -0.4400    1.4400    0.9250 C   0  0  0  0  0  0  0  0  0  0  0  0
   -0.0600    0.0910    1.0070 C   0  0  0  0  0  0  0  0  0  0  0  0
    0.9420   -0.3260    1.8880 C   0  0  0  0  0  0  0  0  0  0  0  0
    1.5860    0.5950    2.7110 C   0  0  0  0  0  0  0  0  0  0  0  0
    1.2350    1.9460    2.6660 C   0  0  0  0  0  0  0  0  0  0  0  0
    1.9070    2.9240    3.5440 C   0  0  0  0  0  0  0  0  0  0  0  0
    2.4830    4.0270    3.0240 C   0  0  0  0  0  0  0  0  0  0  0  0
    3.1390    5.0090    3.8560 C   0  0  0  0  0  0  0  0  0  0  0  0
    3.1750    4.8420    5.1820 C   0  0  0  0  0  0  0  0  0  0  0  0
    2.5930    3.7410    5.7490 N   0  0  0  0  0  0  0  0  0  0  0  0
    1.9480    2.7500    5.0420 C   0  0  0  0  0  0  0  0  0  0  0  0
    1.4430    1.7920    5.6190 O   0  0  0  0  0  0  0  0  0  0  0  0
    0.2300    2.3530    1.7690 C   0  0  0  0  0  0  0  0  0  0  0  0
   -2.0011    3.4313    1.4693 H   0  0  0  0  0  0  0  0  0  0  0  0
   -1.2694    4.0971   -0.0300 H   0  0  0  0  0  0  0  0  0  0  0  0
   -2.9825    3.5567   -0.0300 H   0  0  0  0  0  0  0  0  0  0  0  0
    0.0118    2.1910   -1.5529 H   0  0  0  0  0  0  0  0  0  0  0  0
   -1.3073    1.0644   -2.0192 H   0  0  0  0  0  0  0  0  0  0  0  0
   -1.5982    2.8370   -2.0192 H   0  0  0  0  0  0  0  0  0  0  0  0
   -3.0066    0.7832    1.0621 H   0  0  0  0  0  0  0  0  0  0  0  0
   -3.6020    1.4578   -0.4927 H   0  0  0  0  0  0  0  0  0  0  0  0
   -2.4954    0.0428   -0.4927 H   0  0  0  0  0  0  0  0  0  0  0  0
   -0.5595   -0.6509    0.3667 H   0  0  0  0  0  0  0  0  0  0  0  0
    1.2238   -1.3884    1.9316 H   0  0  0  0  0  0  0  0  0  0  0  0
    2.3745    0.2567    3.3994 H   0  0  0  0  0  0  0  0  0  0  0  0
    2.4524    4.1833    1.9356 H   0  0  0  0  0  0  0  0  0  0  0  0
    3.6082    5.8929    3.3992 H   0  0  0  0  0  0  0  0  0  0  0  0
    3.6725    5.5897    5.8172 H   0  0  0  0  0  0  0  0  0  0  0  0
    2.6160    3.6090    6.7530 H   0  0  0  0  0  0  0  0  0  0  0  0
   -0.0429    3.4177    1.7237 H   0  0  0  0  0  0  0  0  0  0  0  0
  1  2  1  0
  2  3  1  0
  2  4  1  0
  2  5  1  0
  5  6  2  0
  6  7  1  0
  7  8  2  0
  8  9  1  0
  9 10  1  0
 10 11  2  0
 11 12  1  0
 12 13  2  0
 13 14  1  0
 14 15  1  0
 15 16  2  0
  9 17  2  0
 17  5  1  0
 15 10  1  0
  1 18  1  0
  1 19  1  0
  1 20  1  0
  3 21  1  0
  3 22  1  0
  3 23  1  0
  4 24  1  0
  4 25  1  0
  4 26  1  0
  6 27  1  0
  7 28  1  0
  8 29  1  0
 11 30  1  0
 12 31  1  0
 13 32  1  0
 14 33  1  0
 17 34  1  0
M  END
>  <meeko>  (8) 
{"is_sidechain": [false], "free_energy": -5.78, "intermolecular_energy": -6.649, "internal_energy": -0.387}

$$$$
4ih7_ligand
     RDKit          3D

 34 35  0  0  0  0  0  0  0  0999 V2000
    0.9880   -0.4540    4.7390 C   0  0  0  0  0  0  0  0  0  0  0  0
    1.2650    0.9880    4.2600 C   0  0  0  0  0  0  0  0  0  0  0  0
    2.7820    1.2370    4.4110 C   0  0  0  0  0  0  0  0  0  0  0  0
    0.5440    1.9820    5.1970 C   0  0  0  0  0  0  0  0  0  0  0  0
    0.7460    1.1630    2.8220 C   0  0  0  0  0  0  0  0  0  0  0  0
    0.5480    0.0810    1.9500 C   0  0  0  0  0  0  0  0  0  0  0  0
    0.0660    0.2740    0.6530 C   0  0  0  0  0  0  0  0  0  0  0  0
   -0.2260    1.5560    0.1930 C   0  0  0  0  0  0  0  0  0  0  0  0
   -0.0380    2.6630    1.0240 C   0  0  0  0  0  0  0  0  0  0  0  0
   -0.3360    4.0240    0.5380 C   0  0  0  0  0  0  0  0  0  0  0  0
    0.6580    4.9150    0.3480 C   0  0  0  0  0  0  0  0  0  0  0  0
    0.4020    6.2510   -0.1380 C   0  0  0  0  0  0  0  0  0  0  0  0
   -0.8480    6.6280   -0.4240 C   0  0  0  0  0  0  0  0  0  0  0  0
   -1.8840    5.7500   -0.2550 N   0  0  0  0  0  0  0  0  0  0  0  0
   -1.7420    4.4580    0.2040 C   0  0  0  0  0  0  0  0  0  0  0  0
   -2.7170    3.7230    0.3260 O   0  0  0  0  0  0  0  0  0  0  0  0
    0.4410    2.4510    2.3310 C   0  0  0  0  0  0  0  0  0  0  0  0
    0.9829   -0.4805    5.8387 H   0  0  0  0  0  0  0  0  0  0  0  0
    0.0099   -0.7848    4.3597 H   0  0  0  0  0  0  0  0  0  0  0  0
    1.7739   -1.1237    4.3597 H   0  0  0  0  0  0  0  0  0  0  0  0
    3.0420    1.2797    5.4790 H   0  0  0  0  0  0  0  0  0  0  0  0
    3.3376    0.4180    3.9308 H   0  0  0  0  0  0  0  0  0  0  0  0
    3.0466    2.1906    3.9308 H   0  0  0  0  0  0  0  0  0  0  0  0
    0.7422    1.7087    6.2439 H   0  0  0  0  0  0  0  0  0  0  0  0
    0.9152    2.9999    5.0072 H   0  0  0  0  0  0  0  0  0  0  0  0
   -0.5389    1.9452    5.0072 H   0  0  0  0  0  0  0  0  0  0  0  0
    0.7767   -0.9383    2.2944 H   0  0  0  0  0  0  0  0  0  0  0  0
   -0.0838   -0.5916   -0.0090 H   0  0  0  0  0  0  0  0  0  0  0  0
   -0.6064    1.6973   -0.8294 H   0  0  0  0  0  0  0  0  0  0  0  0
    1.6932    4.6161    0.5694 H   0  0  0  0  0  0  0  0  0  0  0  0
    1.2347    6.9571   -0.2725 H   0  0  0  0  0  0  0  0  0  0  0  0
   -1.0441    7.6446   -0.7955 H   0  0  0  0  0  0  0  0  0  0  0  0
   -2.8330    6.0290   -0.4710 H   0  0  0  0  0  0  0  0  0  0  0  0
    0.5824    3.3187    2.9921 H   0  0  0  0  0  0  0  0  0  0  0  0
  1  2  1  0
  2  3  1  0
  2  4  1  0
  2  5  1  0
  5  6  2  0
  6  7  1  0
  7  8  2  0
  8  9  1  0
  9 10  1  0
 10 11  2  0
 11 12  1  0
 12 13  2  0
 13 14  1  0
 14 15  1  0
 15 16  2  0
  9 17  2  0
 17  5  1  0
 15 10  1  0
  1 18  1  0
  1 19  1  0
  1 20  1  0
  3 21  1  0
  3 22  1  0
  3 23  1  0
  4 24  1  0
  4 25  1  0
  4 26  1  0
  6 27  1  0
  7 28  1  0
  8 29  1  0
 11 30  1  0
 12 31  1  0
 13 32  1  0
 14 33  1  0
 17 34  1  0
M  END
>  <meeko>  (9) 
{"is_sidechain": [false], "free_energy": -5.706, "intermolecular_energy": -6.462, "internal_energy": -0.491}

$$$$
