
     RDKit          3D

 21 24  0  0  0  0  0  0  0  0999 V2000
    7.4150    4.4780  -18.5470 O   0  0  0  0  0  0  0  0  0  0  0  0
    6.4670    3.5880  -18.9390 C   0  0  0  0  0  0  0  0  0  0  0  0
    5.4220    3.2610  -18.0770 C   0  0  0  0  0  0  0  0  0  0  0  0
    4.4660    2.3420  -18.4800 C   0  0  0  0  0  0  0  0  0  0  0  0
    4.5380    1.7690  -19.7340 C   0  0  0  0  0  0  0  0  0  0  0  0
    3.4860    0.7840  -20.1780 C   0  0  2  0  0  0  0  0  0  0  0  0
    2.1830    1.2340  -19.6400 O   0  0  0  0  0  0  0  0  0  0  0  0
    1.1030    0.3770  -19.7660 C   0  0  0  0  0  0  0  0  0  0  0  0
   -0.1540    0.8890  -19.4960 C   0  0  0  0  0  0  0  0  0  0  0  0
   -1.2600    0.0550  -19.5940 C   0  0  0  0  0  0  0  0  0  0  0  0
   -1.1160   -1.2760  -19.9480 C   0  0  0  0  0  0  0  0  0  0  0  0
    0.1380   -1.7990  -20.2190 C   0  0  0  0  0  0  0  0  0  0  0  0
    0.2510   -3.0920  -20.5890 O   0  0  0  0  0  0  0  0  0  0  0  0
    1.2810   -0.9940  -20.1270 C   0  0  0  0  0  0  0  0  0  0  0  0
    2.6810   -1.4960  -20.4080 C   0  0  2  0  0  0  0  0  0  0  0  0
    3.1190   -2.9010  -19.9460 C   0  0  0  0  0  0  0  0  0  0  0  0
    4.6680   -2.8140  -19.9880 C   0  0  0  0  0  0  0  0  0  0  0  0
    5.0190   -1.3200  -19.8980 C   0  0  0  0  0  0  0  0  0  0  0  0
    3.6840   -0.6500  -19.6860 C   0  0  1  0  0  0  0  0  0  0  0  0
    5.5900    2.1050  -20.6050 C   0  0  0  0  0  0  0  0  0  0  0  0
    6.5530    3.0180  -20.2010 C   0  0  0  0  0  0  0  0  0  0  0  0
  2  1  1  0
  3  2  2  0
  4  3  1  0
  5  4  2  0
  6  5  1  1
  7  6  1  0
  8  7  1  0
  9  8  2  0
 10  9  1  0
 11 10  2  0
 12 11  1  0
 13 12  1  0
 14 12  2  0
 14  8  1  0
 15 14  1  0
 15 16  1  1
 17 16  1  0
 18 17  1  0
 19 18  1  6
 19 15  1  0
 19  6  1  0
 20  5  1  0
 21 20  2  0
 21  2  1  0
M  END
$$$$
