3zso_ligand
     RDKit          3D

 78 82  0  0  0  0  0  0  0  0999 V2000
   -3.9130    2.0320  -15.2770 C   0  0  0  0  0  0  0  0  0  0  0  0
   -2.8120    1.5240  -14.7060 C   0  0  0  0  0  0  0  0  0  0  0  0
   -2.4420    1.7000  -13.2620 C   0  0  0  0  0  0  0  0  0  0  0  0
   -0.9720    1.9680  -13.0870 N   0  0  2  0  0  0  0  0  0  0  0  0
   -0.1140    0.9370  -13.8070 C   0  0  0  0  0  0  0  0  0  0  0  0
    1.2310    0.6600  -13.1710 C   0  0  0  0  0  0  0  0  0  0  0  0
    1.3680   -0.3700  -12.2260 C   0  0  0  0  0  0  0  0  0  0  0  0
    2.6190   -0.6620  -11.6740 C   0  0  0  0  0  0  0  0  0  0  0  0
    3.7480    0.0620  -12.0580 C   0  0  0  0  0  0  0  0  0  0  0  0
    3.6330    1.0860  -12.9950 C   0  0  0  0  0  0  0  0  0  0  0  0
    2.3820    1.3800  -13.5450 C   0  0  0  0  0  0  0  0  0  0  0  0
    2.2680    2.4990  -14.4970 C   0  0  0  0  0  0  0  0  0  0  0  0
    2.5500    2.2900  -15.6700 O   0  0  0  0  0  0  0  0  0  0  0  0
    1.9420    3.7040  -13.9340 N   0  0  0  0  0  0  0  0  0  0  0  0
    2.1700    4.9480  -14.6590 C   0  0  0  0  0  0  0  0  0  0  0  0
    3.2390    5.7530  -13.9270 C   0  0  0  0  0  0  0  0  0  0  0  0
    4.2110    6.4360  -14.6760 C   0  0  0  0  0  0  0  0  0  0  0  0
    5.2330    7.1460  -14.0410 C   0  0  0  0  0  0  0  0  0  0  0  0
    5.3130    7.1890  -12.6480 C   0  0  0  0  0  0  0  0  0  0  0  0
    6.3580    7.9200  -12.1550 O   0  0  0  0  0  0  0  0  0  0  0  0
    7.0070    8.8040  -13.0600 C   0  0  0  0  0  0  0  0  0  0  0  0
    4.3640    6.5010  -11.8940 C   0  0  0  0  0  0  0  0  0  0  0  0
    3.3410    5.7830  -12.5270 C   0  0  0  0  0  0  0  0  0  0  0  0
    0.8860    5.7280  -14.9360 C   0  0  0  0  0  0  0  0  0  0  0  0
   -0.2700    5.0290  -15.3250 C   0  0  0  0  0  0  0  0  0  0  0  0
   -1.4620    5.7050  -15.6110 C   0  0  0  0  0  0  0  0  0  0  0  0
   -1.5190    7.0940  -15.5190 C   0  0  0  0  0  0  0  0  0  0  0  0
   -2.6140    7.8750  -15.7720 O   0  0  0  0  0  0  0  0  0  0  0  0
   -2.4730    9.2700  -15.5350 C   0  0  0  0  0  0  0  0  0  0  0  0
   -0.3750    7.7980  -15.1390 C   0  0  0  0  0  0  0  0  0  0  0  0
    0.8160    7.1270  -14.8520 C   0  0  0  0  0  0  0  0  0  0  0  0
   -0.6130    2.0160  -11.6070 C   0  0  0  0  0  0  0  0  0  0  0  0
   -0.2060    3.3880  -11.1170 C   0  0  0  0  0  0  0  0  0  0  0  0
   -0.7510    4.5460  -11.7210 C   0  0  0  0  0  0  0  0  0  0  0  0
   -0.3650    5.8200  -11.2970 C   0  0  0  0  0  0  0  0  0  0  0  0
    0.5630    5.9090  -10.2800 C   0  0  0  0  0  0  0  0  0  0  0  0
    1.1090    4.7960   -9.6830 C   0  0  0  0  0  0  0  0  0  0  0  0
    0.7480    3.5210  -10.0760 C   0  0  0  0  0  0  0  0  0  0  0  0
    1.3660    2.3100   -9.4680 C   0  0  0  0  0  0  0  0  0  0  0  0
    2.5810    2.1030   -9.7510 O   0  0  0  0  0  0  0  0  0  0  0  0
    0.6900    1.7360   -8.5600 O   0  0  0  0  0  0  0  0  0  0  0  0
    1.9970    5.1280   -8.7090 O   0  0  0  0  0  0  0  0  0  0  0  0
    1.9450    6.5640   -8.7540 C   0  0  0  0  0  0  0  0  0  0  0  0
    1.0430    7.0720   -9.7590 O   0  0  0  0  0  0  0  0  0  0  0  0
   -4.1102    1.8556  -16.3447 H   0  0  0  0  0  0  0  0  0  0  0  0
   -4.6195    2.6253  -14.6779 H   0  0  0  0  0  0  0  0  0  0  0  0
   -2.1316    0.9368  -15.3402 H   0  0  0  0  0  0  0  0  0  0  0  0
   -3.0093    2.5479  -12.8505 H   0  0  0  0  0  0  0  0  0  0  0  0
   -2.6832    0.7664  -12.7326 H   0  0  0  0  0  0  0  0  0  0  0  0
   -0.7450    2.8750  -13.4890 H   0  0  0  0  0  0  0  0  0  0  0  0
   -0.6753   -0.0084  -13.8413 H   0  0  0  0  0  0  0  0  0  0  0  0
    0.0993    1.3580  -14.8006 H   0  0  0  0  0  0  0  0  0  0  0  0
    0.4857   -0.9505  -11.9183 H   0  0  0  0  0  0  0  0  0  0  0  0
    2.7137   -1.4683  -10.9317 H   0  0  0  0  0  0  0  0  0  0  0  0
    4.7289   -0.1759  -11.6208 H   0  0  0  0  0  0  0  0  0  0  0  0
    4.5206    1.6595  -13.3002 H   0  0  0  0  0  0  0  0  0  0  0  0
    1.9650    3.7780  -12.9230 H   0  0  0  0  0  0  0  0  0  0  0  0
    2.5447    4.7139  -15.6664 H   0  0  0  0  0  0  0  0  0  0  0  0
    4.1672    6.4117  -15.7749 H   0  0  0  0  0  0  0  0  0  0  0  0
    5.9830    7.6771  -14.6455 H   0  0  0  0  0  0  0  0  0  0  0  0
    7.5650    9.5641  -12.4935 H   0  0  0  0  0  0  0  0  0  0  0  0
    7.7030    8.2344  -13.6933 H   0  0  0  0  0  0  0  0  0  0  0  0
    6.2551    9.2974  -13.6933 H   0  0  0  0  0  0  0  0  0  0  0  0
    4.4185    6.5219  -10.7956 H   0  0  0  0  0  0  0  0  0  0  0  0
    2.6069    5.2347  -11.9183 H   0  0  0  0  0  0  0  0  0  0  0  0
   -0.2373    3.9325  -15.4060 H   0  0  0  0  0  0  0  0  0  0  0  0
   -2.3562    5.1379  -15.9092 H   0  0  0  0  0  0  0  0  0  0  0  0
   -2.4540    9.4577  -14.4513 H   0  0  0  0  0  0  0  0  0  0  0  0
   -1.5344    9.6254  -15.9852 H   0  0  0  0  0  0  0  0  0  0  0  0
   -3.3215    9.8060  -15.9852 H   0  0  0  0  0  0  0  0  0  0  0  0
   -0.4119    8.8949  -15.0647 H   0  0  0  0  0  0  0  0  0  0  0  0
    1.7072    7.7005  -14.5574 H   0  0  0  0  0  0  0  0  0  0  0  0
   -1.4886    1.6875  -11.0278 H   0  0  0  0  0  0  0  0  0  0  0  0
    0.2573    1.3576  -11.4690 H   0  0  0  0  0  0  0  0  0  0  0  0
   -1.4861    4.4419  -12.5327 H   0  0  0  0  0  0  0  0  0  0  0  0
   -0.7878    6.7240  -11.7596 H   0  0  0  0  0  0  0  0  0  0  0  0
    1.6156    6.9322   -7.7712 H   0  0  0  0  0  0  0  0  0  0  0  0
    2.9537    6.9182   -9.0131 H   0  0  0  0  0  0  0  0  0  0  0  0
  1  2  2  0
  2  3  1  0
  3  4  1  0
  4  5  1  0
  5  6  1  0
  6  7  2  0
  7  8  1  0
  8  9  2  0
  9 10  1  0
 10 11  2  0
 11 12  1  0
 12 13  2  0
 12 14  1  0
 14 15  1  0
 15 16  1  0
 16 17  2  0
 17 18  1  0
 18 19  2  0
 19 20  1  0
 20 21  1  0
 19 22  1  0
 22 23  2  0
 15 24  1  0
 24 25  2  0
 25 26  1  0
 26 27  2  0
 27 28  1  0
 28 29  1  0
 27 30  1  0
 30 31  2  0
  4 32  1  0
 32 33  1  0
 33 34  2  0
 34 35  1  0
 35 36  2  0
 36 37  1  0
 37 38  2  0
 38 39  1  0
 39 40  2  0
 39 41  1  0
 37 42  1  0
 42 43  1  0
 43 44  1  0
 11  6  1  0
 23 16  1  0
 31 24  1  0
 38 33  1  0
 44 36  1  0
  1 45  1  0
  1 46  1  0
  2 47  1  0
  3 48  1  0
  3 49  1  0
  4 50  1  6
  5 51  1  0
  5 52  1  0
  7 53  1  0
  8 54  1  0
  9 55  1  0
 10 56  1  0
 14 57  1  0
 15 58  1  0
 17 59  1  0
 18 60  1  0
 21 61  1  0
 21 62  1  0
 21 63  1  0
 22 64  1  0
 23 65  1  0
 25 66  1  0
 26 67  1  0
 29 68  1  0
 29 69  1  0
 29 70  1  0
 30 71  1  0
 31 72  1  0
 32 73  1  0
 32 74  1  0
 34 75  1  0
 35 76  1  0
 43 77  1  0
 43 78  1  0
M  CHG  2   4   1  41  -1
M  END
>  <meeko>  (1) 
{"is_sidechain": [false], "free_energy": -6.406, "intermolecular_energy": -11.275, "internal_energy": -4.77}

$$$$
3zso_ligand
     RDKit          3D

 78 82  0  0  0  0  0  0  0  0999 V2000
    7.7040    9.7990  -13.3000 C   0  0  0  0  0  0  0  0  0  0  0  0
    6.7660    8.8460  -13.3930 C   0  0  0  0  0  0  0  0  0  0  0  0
    6.2190    8.0720  -12.2300 C   0  0  0  0  0  0  0  0  0  0  0  0
    6.2140    6.5910  -12.4910 N   0  0  2  0  0  0  0  0  0  0  0  0
    6.9540    6.2350  -13.7720 C   0  0  0  0  0  0  0  0  0  0  0  0
    8.3250    5.6250  -13.5760 C   0  0  0  0  0  0  0  0  0  0  0  0
    9.2230    6.1830  -12.6520 C   0  0  0  0  0  0  0  0  0  0  0  0
   10.4710    5.5940  -12.4310 C   0  0  0  0  0  0  0  0  0  0  0  0
   10.8390    4.4380  -13.1220 C   0  0  0  0  0  0  0  0  0  0  0  0
    9.9620    3.8670  -14.0410 C   0  0  0  0  0  0  0  0  0  0  0  0
    8.7150    4.4600  -14.2640 C   0  0  0  0  0  0  0  0  0  0  0  0
    7.8200    3.8730  -15.2760 C   0  0  0  0  0  0  0  0  0  0  0  0
    7.8340    4.3480  -16.4040 O   0  0  0  0  0  0  0  0  0  0  0  0
    6.9820    2.8960  -14.8070 N   0  0  0  0  0  0  0  0  0  0  0  0
    5.8010    2.5030  -15.5660 C   0  0  0  0  0  0  0  0  0  0  0  0
    4.6480    2.2710  -14.5950 C   0  0  0  0  0  0  0  0  0  0  0  0
    4.6730    1.1390  -13.7650 C   0  0  0  0  0  0  0  0  0  0  0  0
    3.6140    0.8690  -12.8950 C   0  0  0  0  0  0  0  0  0  0  0  0
    2.5060    1.7150  -12.8340 C   0  0  0  0  0  0  0  0  0  0  0  0
    1.5430    1.3380  -11.9400 O   0  0  0  0  0  0  0  0  0  0  0  0
    1.8110    0.1830  -11.1560 C   0  0  0  0  0  0  0  0  0  0  0  0
    2.4620    2.8330  -13.6660 C   0  0  0  0  0  0  0  0  0  0  0  0
    3.5200    3.1040  -14.5440 C   0  0  0  0  0  0  0  0  0  0  0  0
    6.0570    1.3360  -16.5180 C   0  0  0  0  0  0  0  0  0  0  0  0
    5.0520    0.9580  -17.4240 C   0  0  0  0  0  0  0  0  0  0  0  0
    5.2330   -0.1200  -18.2980 C   0  0  0  0  0  0  0  0  0  0  0  0
    6.4230   -0.8460  -18.2770 C   0  0  0  0  0  0  0  0  0  0  0  0
    6.7280   -1.9170  -19.0710 O   0  0  0  0  0  0  0  0  0  0  0  0
    6.3500   -3.2000  -18.5880 C   0  0  0  0  0  0  0  0  0  0  0  0
    7.4250   -0.4830  -17.3760 C   0  0  0  0  0  0  0  0  0  0  0  0
    7.2470    0.5940  -16.5030 C   0  0  0  0  0  0  0  0  0  0  0  0
    4.7860    6.0640  -12.5390 C   0  0  0  0  0  0  0  0  0  0  0  0
    4.4840    5.0070  -11.5010 C   0  0  0  0  0  0  0  0  0  0  0  0
    5.4090    3.9620  -11.2640 C   0  0  0  0  0  0  0  0  0  0  0  0
    5.1340    2.9640  -10.3270 C   0  0  0  0  0  0  0  0  0  0  0  0
    3.9340    3.0280   -9.6480 C   0  0  0  0  0  0  0  0  0  0  0  0
    3.0190    4.0320   -9.8660 C   0  0  0  0  0  0  0  0  0  0  0  0
    3.2600    5.0360  -10.7840 C   0  0  0  0  0  0  0  0  0  0  0  0
    2.2570    6.1030  -11.0610 C   0  0  0  0  0  0  0  0  0  0  0  0
    1.4370    5.8660  -11.9940 O   0  0  0  0  0  0  0  0  0  0  0  0
    2.1800    7.0310  -10.2010 O   0  0  0  0  0  0  0  0  0  0  0  0
    1.9150    3.8890   -9.0850 O   0  0  0  0  0  0  0  0  0  0  0  0
    2.2390    2.6970   -8.3510 C   0  0  0  0  0  0  0  0  0  0  0  0
    3.5180    2.1340   -8.7100 O   0  0  0  0  0  0  0  0  0  0  0  0
    8.0507   10.3196  -14.2048 H   0  0  0  0  0  0  0  0  0  0  0  0
    8.1271   10.0604  -12.3188 H   0  0  0  0  0  0  0  0  0  0  0  0
    6.3693    8.6151  -14.3926 H   0  0  0  0  0  0  0  0  0  0  0  0
    6.8401    8.2745  -11.3450 H   0  0  0  0  0  0  0  0  0  0  0  0
    5.1791    8.3919  -12.0680 H   0  0  0  0  0  0  0  0  0  0  0  0
    6.6930    6.1140  -11.7300 H   0  0  0  0  0  0  0  0  0  0  0  0
    6.3384    5.5156  -14.3319 H   0  0  0  0  0  0  0  0  0  0  0  0
    7.1154    7.1837  -14.3049 H   0  0  0  0  0  0  0  0  0  0  0  0
    8.9421    7.0907  -12.0978 H   0  0  0  0  0  0  0  0  0  0  0  0
   11.1675    6.0439  -11.7082 H   0  0  0  0  0  0  0  0  0  0  0  0
   11.8217    3.9782  -12.9406 H   0  0  0  0  0  0  0  0  0  0  0  0
   10.2480    2.9562  -14.5875 H   0  0  0  0  0  0  0  0  0  0  0  0
    6.9180    2.7650  -13.8040 H   0  0  0  0  0  0  0  0  0  0  0  0
    5.5199    3.3228  -16.2434 H   0  0  0  0  0  0  0  0  0  0  0  0
    5.5357    0.4574  -13.8001 H   0  0  0  0  0  0  0  0  0  0  0  0
    3.6540   -0.0213  -12.2502 H   0  0  0  0  0  0  0  0  0  0  0  0
    1.7508    0.4423  -10.0887 H   0  0  0  0  0  0  0  0  0  0  0  0
    1.0699   -0.5965  -11.3863 H   0  0  0  0  0  0  0  0  0  0  0  0
    2.8197   -0.1905  -11.3863 H   0  0  0  0  0  0  0  0  0  0  0  0
    1.5923    3.5057  -13.6330 H   0  0  0  0  0  0  0  0  0  0  0  0
    3.4654    3.9830  -15.2031 H   0  0  0  0  0  0  0  0  0  0  0  0
    4.1062    1.5192  -17.4468 H   0  0  0  0  0  0  0  0  0  0  0  0
    4.4347   -0.3950  -19.0030 H   0  0  0  0  0  0  0  0  0  0  0  0
    6.3521   -3.1929  -17.4880 H   0  0  0  0  0  0  0  0  0  0  0  0
    5.3412   -3.4459  -18.9512 H   0  0  0  0  0  0  0  0  0  0  0  0
    7.0643   -3.9536  -18.9512 H   0  0  0  0  0  0  0  0  0  0  0  0
    8.3665   -1.0514  -17.3526 H   0  0  0  0  0  0  0  0  0  0  0  0
    8.0475    0.8620  -15.7978 H   0  0  0  0  0  0  0  0  0  0  0  0
    4.1001    6.9094  -12.3812 H   0  0  0  0  0  0  0  0  0  0  0  0
    4.6554    5.5896  -13.5228 H   0  0  0  0  0  0  0  0  0  0  0  0
    6.3552    3.9359  -11.8244 H   0  0  0  0  0  0  0  0  0  0  0  0
    5.8512    2.1522  -10.1359 H   0  0  0  0  0  0  0  0  0  0  0  0
    2.2539    2.9409   -7.2785 H   0  0  0  0  0  0  0  0  0  0  0  0
    1.4731    1.9463   -8.5955 H   0  0  0  0  0  0  0  0  0  0  0  0
  1  2  2  0
  2  3  1  0
  3  4  1  0
  4  5  1  0
  5  6  1  0
  6  7  2  0
  7  8  1  0
  8  9  2  0
  9 10  1  0
 10 11  2  0
 11 12  1  0
 12 13  2  0
 12 14  1  0
 14 15  1  0
 15 16  1  0
 16 17  2  0
 17 18  1  0
 18 19  2  0
 19 20  1  0
 20 21  1  0
 19 22  1  0
 22 23  2  0
 15 24  1  0
 24 25  2  0
 25 26  1  0
 26 27  2  0
 27 28  1  0
 28 29  1  0
 27 30  1  0
 30 31  2  0
  4 32  1  0
 32 33  1  0
 33 34  2  0
 34 35  1  0
 35 36  2  0
 36 37  1  0
 37 38  2  0
 38 39  1  0
 39 40  2  0
 39 41  1  0
 37 42  1  0
 42 43  1  0
 43 44  1  0
 11  6  1  0
 23 16  1  0
 31 24  1  0
 38 33  1  0
 44 36  1  0
  1 45  1  0
  1 46  1  0
  2 47  1  0
  3 48  1  0
  3 49  1  0
  4 50  1  1
  5 51  1  0
  5 52  1  0
  7 53  1  0
  8 54  1  0
  9 55  1  0
 10 56  1  0
 14 57  1  0
 15 58  1  0
 17 59  1  0
 18 60  1  0
 21 61  1  0
 21 62  1  0
 21 63  1  0
 22 64  1  0
 23 65  1  0
 25 66  1  0
 26 67  1  0
 29 68  1  0
 29 69  1  0
 29 70  1  0
 30 71  1  0
 31 72  1  0
 32 73  1  0
 32 74  1  0
 34 75  1  0
 35 76  1  0
 43 77  1  0
 43 78  1  0
M  CHG  2   4   1  41  -1
M  END
>  <meeko>  (2) 
{"is_sidechain": [false], "free_energy": -6.399, "intermolecular_energy": -11.364, "internal_energy": -4.668}

$$$$
3zso_ligand
     RDKit          3D

 78 82  0  0  0  0  0  0  0  0999 V2000
   -2.7480   -0.8760  -17.8740 C   0  0  0  0  0  0  0  0  0  0  0  0
   -1.8900   -0.0700  -17.2330 C   0  0  0  0  0  0  0  0  0  0  0  0
   -1.6700   -0.0680  -15.7480 C   0  0  0  0  0  0  0  0  0  0  0  0
   -1.6940    1.3240  -15.1780 N   0  0  2  0  0  0  0  0  0  0  0  0
   -2.1050    2.3590  -16.2160 C   0  0  0  0  0  0  0  0  0  0  0  0
   -3.5280    2.8590  -16.0990 C   0  0  0  0  0  0  0  0  0  0  0  0
   -4.5780    1.9570  -15.8640 C   0  0  0  0  0  0  0  0  0  0  0  0
   -5.8880    2.4200  -15.7050 C   0  0  0  0  0  0  0  0  0  0  0  0
   -6.1680    3.7850  -15.7730 C   0  0  0  0  0  0  0  0  0  0  0  0
   -5.1400    4.6960  -16.0020 C   0  0  0  0  0  0  0  0  0  0  0  0
   -3.8310    4.2320  -16.1640 C   0  0  0  0  0  0  0  0  0  0  0  0
   -2.7630    5.2050  -16.4570 C   0  0  0  0  0  0  0  0  0  0  0  0
   -2.4670    5.4010  -17.6280 O   0  0  0  0  0  0  0  0  0  0  0  0
   -2.1410    5.7270  -15.3540 N   0  0  0  0  0  0  0  0  0  0  0  0
   -0.8440    6.3820  -15.4740 C   0  0  0  0  0  0  0  0  0  0  0  0
    0.0320    5.9520  -14.3010 C   0  0  0  0  0  0  0  0  0  0  0  0
   -0.2530    6.4480  -13.0190 C   0  0  0  0  0  0  0  0  0  0  0  0
    0.5540    6.1130  -11.9290 C   0  0  0  0  0  0  0  0  0  0  0  0
    1.6640    5.2820  -12.0910 C   0  0  0  0  0  0  0  0  0  0  0  0
    2.3670    5.0310  -10.9450 O   0  0  0  0  0  0  0  0  0  0  0  0
    1.8990    5.6550   -9.7560 C   0  0  0  0  0  0  0  0  0  0  0  0
    1.9670    4.7980  -13.3630 C   0  0  0  0  0  0  0  0  0  0  0  0
    1.1630    5.1360  -14.4600 C   0  0  0  0  0  0  0  0  0  0  0  0
   -0.9470    7.8960  -15.6500 C   0  0  0  0  0  0  0  0  0  0  0  0
    0.2100    8.6300  -15.9630 C   0  0  0  0  0  0  0  0  0  0  0  0
    0.1660   10.0210  -16.1110 C   0  0  0  0  0  0  0  0  0  0  0  0
   -1.0350   10.7060  -15.9420 C   0  0  0  0  0  0  0  0  0  0  0  0
   -1.2160   12.0570  -16.0560 O   0  0  0  0  0  0  0  0  0  0  0  0
   -1.9250   12.6980  -15.0020 C   0  0  0  0  0  0  0  0  0  0  0  0
   -2.1890    9.9870  -15.6260 C   0  0  0  0  0  0  0  0  0  0  0  0
   -2.1490    8.5980  -15.4780 C   0  0  0  0  0  0  0  0  0  0  0  0
   -0.3370    1.6790  -14.5830 C   0  0  0  0  0  0  0  0  0  0  0  0
   -0.3800    2.0120  -13.1090 C   0  0  0  0  0  0  0  0  0  0  0  0
   -1.4040    2.8460  -12.6000 C   0  0  0  0  0  0  0  0  0  0  0  0
   -1.4420    3.1850  -11.2460 C   0  0  0  0  0  0  0  0  0  0  0  0
   -0.4510    2.6840  -10.4270 C   0  0  0  0  0  0  0  0  0  0  0  0
    0.5560    1.8750  -10.9010 C   0  0  0  0  0  0  0  0  0  0  0  0
    0.6230    1.5200  -12.2340 C   0  0  0  0  0  0  0  0  0  0  0  0
    1.7340    0.6820  -12.7670 C   0  0  0  0  0  0  0  0  0  0  0  0
    2.7550    1.3060  -13.1760 O   0  0  0  0  0  0  0  0  0  0  0  0
    1.6420   -0.5650  -12.5540 O   0  0  0  0  0  0  0  0  0  0  0  0
    1.4150    1.5050   -9.9140 O   0  0  0  0  0  0  0  0  0  0  0  0
    0.8360    2.1600   -8.7730 C   0  0  0  0  0  0  0  0  0  0  0  0
   -0.3460    2.9230   -9.0900 O   0  0  0  0  0  0  0  0  0  0  0  0
   -2.8492   -0.8133  -18.9675 H   0  0  0  0  0  0  0  0  0  0  0  0
   -3.3509   -1.6002  -17.3065 H   0  0  0  0  0  0  0  0  0  0  0  0
   -1.3061    0.6397  -17.8375 H   0  0  0  0  0  0  0  0  0  0  0  0
   -2.4636   -0.6614  -15.2704 H   0  0  0  0  0  0  0  0  0  0  0  0
   -0.6777   -0.4997  -15.5503 H   0  0  0  0  0  0  0  0  0  0  0  0
   -2.3810    1.3690  -14.4280 H   0  0  0  0  0  0  0  0  0  0  0  0
   -1.4316    3.2234  -16.1197 H   0  0  0  0  0  0  0  0  0  0  0  0
   -2.0376    1.8559  -17.1919 H   0  0  0  0  0  0  0  0  0  0  0  0
   -4.3688    0.8787  -15.8045 H   0  0  0  0  0  0  0  0  0  0  0  0
   -6.7029    1.7033  -15.5252 H   0  0  0  0  0  0  0  0  0  0  0  0
   -7.2008    4.1416  -15.6457 H   0  0  0  0  0  0  0  0  0  0  0  0
   -5.3563    5.7732  -16.0551 H   0  0  0  0  0  0  0  0  0  0  0  0
   -2.3330    5.3030  -14.4540 H   0  0  0  0  0  0  0  0  0  0  0  0
   -0.3595    6.0530  -16.4051 H   0  0  0  0  0  0  0  0  0  0  0  0
   -1.1209    7.1074  -12.8712 H   0  0  0  0  0  0  0  0  0  0  0  0
    0.3120    6.5086  -10.9315 H   0  0  0  0  0  0  0  0  0  0  0  0
    2.2986    5.1222   -8.8806 H   0  0  0  0  0  0  0  0  0  0  0  0
    2.2367    6.7016   -9.7338 H   0  0  0  0  0  0  0  0  0  0  0  0
    0.7997    5.6239   -9.7338 H   0  0  0  0  0  0  0  0  0  0  0  0
    2.8421    4.1471  -13.5063 H   0  0  0  0  0  0  0  0  0  0  0  0
    1.4219    4.7566  -15.4595 H   0  0  0  0  0  0  0  0  0  0  0  0
    1.1662    8.1023  -16.0939 H   0  0  0  0  0  0  0  0  0  0  0  0
    1.0827   10.5750  -16.3616 H   0  0  0  0  0  0  0  0  0  0  0  0
   -1.5378   12.3480  -14.0337 H   0  0  0  0  0  0  0  0  0  0  0  0
   -1.7903   13.7870  -15.0787 H   0  0  0  0  0  0  0  0  0  0  0  0
   -2.9950   12.4546  -15.0787 H   0  0  0  0  0  0  0  0  0  0  0  0
   -3.1416   10.5204  -15.4918 H   0  0  0  0  0  0  0  0  0  0  0  0
   -3.0686    8.0502  -15.2243 H   0  0  0  0  0  0  0  0  0  0  0  0
    0.3376    0.8217  -14.7244 H   0  0  0  0  0  0  0  0  0  0  0  0
    0.0120    2.5831  -15.1035 H   0  0  0  0  0  0  0  0  0  0  0  0
   -2.1789    3.2316  -13.2789 H   0  0  0  0  0  0  0  0  0  0  0  0
   -2.2368    3.8310  -10.8449 H   0  0  0  0  0  0  0  0  0  0  0  0
    0.5681    1.3944   -8.0300 H   0  0  0  0  0  0  0  0  0  0  0  0
    1.5860    2.8671   -8.3889 H   0  0  0  0  0  0  0  0  0  0  0  0
  1  2  2  0
  2  3  1  0
  3  4  1  0
  4  5  1  0
  5  6  1  0
  6  7  2  0
  7  8  1  0
  8  9  2  0
  9 10  1  0
 10 11  2  0
 11 12  1  0
 12 13  2  0
 12 14  1  0
 14 15  1  0
 15 16  1  0
 16 17  2  0
 17 18  1  0
 18 19  2  0
 19 20  1  0
 20 21  1  0
 19 22  1  0
 22 23  2  0
 15 24  1  0
 24 25  2  0
 25 26  1  0
 26 27  2  0
 27 28  1  0
 28 29  1  0
 27 30  1  0
 30 31  2  0
  4 32  1  0
 32 33  1  0
 33 34  2  0
 34 35  1  0
 35 36  2  0
 36 37  1  0
 37 38  2  0
 38 39  1  0
 39 40  2  0
 39 41  1  0
 37 42  1  0
 42 43  1  0
 43 44  1  0
 11  6  1  0
 23 16  1  0
 31 24  1  0
 38 33  1  0
 44 36  1  0
  1 45  1  0
  1 46  1  0
  2 47  1  0
  3 48  1  0
  3 49  1  0
  4 50  1  1
  5 51  1  0
  5 52  1  0
  7 53  1  0
  8 54  1  0
  9 55  1  0
 10 56  1  0
 14 57  1  0
 15 58  1  0
 17 59  1  0
 18 60  1  0
 21 61  1  0
 21 62  1  0
 21 63  1  0
 22 64  1  0
 23 65  1  0
 25 66  1  0
 26 67  1  0
 29 68  1  0
 29 69  1  0
 29 70  1  0
 30 71  1  0
 31 72  1  0
 32 73  1  0
 32 74  1  0
 34 75  1  0
 35 76  1  0
 43 77  1  0
 43 78  1  0
M  CHG  2   4   1  41  -1
M  END
>  <meeko>  (3) 
{"is_sidechain": [false], "free_energy": -6.354, "intermolecular_energy": -11.28, "internal_energy": -4.673}

$$$$
3zso_ligand
     RDKit          3D

 78 82  0  0  0  0  0  0  0  0999 V2000
   -0.5690    1.7700   -8.6540 C   0  0  0  0  0  0  0  0  0  0  0  0
   -0.4480    0.9930   -9.7400 C   0  0  0  0  0  0  0  0  0  0  0  0
    0.8580    0.5100  -10.3010 C   0  0  0  0  0  0  0  0  0  0  0  0
    1.7860    1.6470  -10.6270 N   0  0  2  0  0  0  0  0  0  0  0  0
    1.2540    2.5130  -11.7600 C   0  0  0  0  0  0  0  0  0  0  0  0
    0.7540    3.8800  -11.3480 C   0  0  0  0  0  0  0  0  0  0  0  0
    1.5690    4.7300  -10.5830 C   0  0  0  0  0  0  0  0  0  0  0  0
    1.1320    6.0130  -10.2430 C   0  0  0  0  0  0  0  0  0  0  0  0
   -0.1180    6.4690  -10.6630 C   0  0  0  0  0  0  0  0  0  0  0  0
   -0.9410    5.6420  -11.4240 C   0  0  0  0  0  0  0  0  0  0  0  0
   -0.5040    4.3580  -11.7610 C   0  0  0  0  0  0  0  0  0  0  0  0
   -1.4070    3.4770  -12.5240 C   0  0  0  0  0  0  0  0  0  0  0  0
   -2.1150    2.6970  -11.9000 O   0  0  0  0  0  0  0  0  0  0  0  0
   -1.2840    3.5650  -13.8850 N   0  0  0  0  0  0  0  0  0  0  0  0
   -1.8080    2.5130  -14.7480 C   0  0  0  0  0  0  0  0  0  0  0  0
   -0.8380    2.3010  -15.9060 C   0  0  0  0  0  0  0  0  0  0  0  0
    0.3590    3.0340  -15.9360 C   0  0  0  0  0  0  0  0  0  0  0  0
    1.2510    2.9000  -17.0030 C   0  0  0  0  0  0  0  0  0  0  0  0
    0.9690    2.0390  -18.0650 C   0  0  0  0  0  0  0  0  0  0  0  0
    1.9240    2.0000  -19.0430 O   0  0  0  0  0  0  0  0  0  0  0  0
    2.2010    3.2200  -19.7190 C   0  0  0  0  0  0  0  0  0  0  0  0
   -0.2250    1.3200  -18.0560 C   0  0  0  0  0  0  0  0  0  0  0  0
   -1.1240    1.4560  -16.9890 C   0  0  0  0  0  0  0  0  0  0  0  0
   -3.2520    2.7530  -15.1820 C   0  0  0  0  0  0  0  0  0  0  0  0
   -4.2030    1.7360  -14.9930 C   0  0  0  0  0  0  0  0  0  0  0  0
   -5.5320    1.9030  -15.3970 C   0  0  0  0  0  0  0  0  0  0  0  0
   -5.9350    3.0900  -16.0050 C   0  0  0  0  0  0  0  0  0  0  0  0
   -7.1970    3.3820  -16.4470 O   0  0  0  0  0  0  0  0  0  0  0  0
   -7.3090    3.8800  -17.7750 C   0  0  0  0  0  0  0  0  0  0  0  0
   -4.9980    4.1050  -16.2030 C   0  0  0  0  0  0  0  0  0  0  0  0
   -3.6700    3.9410  -15.8000 C   0  0  0  0  0  0  0  0  0  0  0  0
    3.1740    1.1200  -10.9690 C   0  0  0  0  0  0  0  0  0  0  0  0
    4.2230    2.1990  -11.1180 C   0  0  0  0  0  0  0  0  0  0  0  0
    4.6060    2.9740   -9.9970 C   0  0  0  0  0  0  0  0  0  0  0  0
    5.5540    3.9920  -10.1240 C   0  0  0  0  0  0  0  0  0  0  0  0
    6.0980    4.2170  -11.3720 C   0  0  0  0  0  0  0  0  0  0  0  0
    5.7370    3.4780  -12.4750 C   0  0  0  0  0  0  0  0  0  0  0  0
    4.8030    2.4630  -12.3850 C   0  0  0  0  0  0  0  0  0  0  0  0
    4.3720    1.6870  -13.5810 C   0  0  0  0  0  0  0  0  0  0  0  0
    3.6690    2.3120  -14.4260 O   0  0  0  0  0  0  0  0  0  0  0  0
    4.9300    0.5600  -13.7450 O   0  0  0  0  0  0  0  0  0  0  0  0
    6.4020    3.8780  -13.5920 O   0  0  0  0  0  0  0  0  0  0  0  0
    7.2220    4.9370  -13.0700 C   0  0  0  0  0  0  0  0  0  0  0  0
    7.0270    5.1690  -11.6600 O   0  0  0  0  0  0  0  0  0  0  0  0
   -1.5660    2.0804   -8.3081 H   0  0  0  0  0  0  0  0  0  0  0  0
    0.3287    2.0971   -8.1089 H   0  0  0  0  0  0  0  0  0  0  0  0
   -1.3703    0.6881  -10.2561 H   0  0  0  0  0  0  0  0  0  0  0  0
    1.3429   -0.1429   -9.5603 H   0  0  0  0  0  0  0  0  0  0  0  0
    0.6467   -0.0341  -11.2334 H   0  0  0  0  0  0  0  0  0  0  0  0
    1.8780    2.2510   -9.8120 H   0  0  0  0  0  0  0  0  0  0  0  0
    2.0647    2.6534  -12.4901 H   0  0  0  0  0  0  0  0  0  0  0  0
    0.3822    1.9799  -12.1671 H   0  0  0  0  0  0  0  0  0  0  0  0
    2.5582    4.3835  -10.2491 H   0  0  0  0  0  0  0  0  0  0  0  0
    1.7780    6.6681   -9.6400 H   0  0  0  0  0  0  0  0  0  0  0  0
   -0.4535    7.4813  -10.3932 H   0  0  0  0  0  0  0  0  0  0  0  0
   -1.9274    5.9969  -11.7572 H   0  0  0  0  0  0  0  0  0  0  0  0
   -0.4980    4.0840  -14.2590 H   0  0  0  0  0  0  0  0  0  0  0  0
   -1.8707    1.5756  -14.1758 H   0  0  0  0  0  0  0  0  0  0  0  0
    0.5971    3.7211  -15.1107 H   0  0  0  0  0  0  0  0  0  0  0  0
    2.1860    3.4795  -17.0062 H   0  0  0  0  0  0  0  0  0  0  0  0
    2.3816    4.0154  -18.9809 H   0  0  0  0  0  0  0  0  0  0  0  0
    3.0937    3.0953  -20.3495 H   0  0  0  0  0  0  0  0  0  0  0  0
    1.3420    3.4931  -20.3495 H   0  0  0  0  0  0  0  0  0  0  0  0
   -0.4629    0.6430  -18.8897 H   0  0  0  0  0  0  0  0  0  0  0  0
   -2.0681    0.8916  -17.0010 H   0  0  0  0  0  0  0  0  0  0  0  0
   -3.8971    0.7917  -14.5189 H   0  0  0  0  0  0  0  0  0  0  0  0
   -6.2606    1.0951  -15.2342 H   0  0  0  0  0  0  0  0  0  0  0  0
   -7.5503    4.9528  -17.7452 H   0  0  0  0  0  0  0  0  0  0  0  0
   -6.3554    3.7332  -18.3033 H   0  0  0  0  0  0  0  0  0  0  0  0
   -8.1079    3.3390  -18.3033 H   0  0  0  0  0  0  0  0  0  0  0  0
   -5.3084    5.0453  -16.6820 H   0  0  0  0  0  0  0  0  0  0  0  0
   -2.9455    4.7512  -15.9690 H   0  0  0  0  0  0  0  0  0  0  0  0
    3.4918    0.4372  -10.1673 H   0  0  0  0  0  0  0  0  0  0  0  0
    3.0923    0.6191  -11.9449 H   0  0  0  0  0  0  0  0  0  0  0  0
    4.1522    2.7724   -9.0154 H   0  0  0  0  0  0  0  0  0  0  0  0
    5.8575    4.5957   -9.2560 H   0  0  0  0  0  0  0  0  0  0  0  0
    8.2774    4.6762  -13.2380 H   0  0  0  0  0  0  0  0  0  0  0  0
    6.9339    5.8600  -13.5944 H   0  0  0  0  0  0  0  0  0  0  0  0
  1  2  2  0
  2  3  1  0
  3  4  1  0
  4  5  1  0
  5  6  1  0
  6  7  2  0
  7  8  1  0
  8  9  2  0
  9 10  1  0
 10 11  2  0
 11 12  1  0
 12 13  2  0
 12 14  1  0
 14 15  1  0
 15 16  1  0
 16 17  2  0
 17 18  1  0
 18 19  2  0
 19 20  1  0
 20 21  1  0
 19 22  1  0
 22 23  2  0
 15 24  1  0
 24 25  2  0
 25 26  1  0
 26 27  2  0
 27 28  1  0
 28 29  1  0
 27 30  1  0
 30 31  2  0
  4 32  1  0
 32 33  1  0
 33 34  2  0
 34 35  1  0
 35 36  2  0
 36 37  1  0
 37 38  2  0
 38 39  1  0
 39 40  2  0
 39 41  1  0
 37 42  1  0
 42 43  1  0
 43 44  1  0
 11  6  1  0
 23 16  1  0
 31 24  1  0
 38 33  1  0
 44 36  1  0
  1 45  1  0
  1 46  1  0
  2 47  1  0
  3 48  1  0
  3 49  1  0
  4 50  1  1
  5 51  1  0
  5 52  1  0
  7 53  1  0
  8 54  1  0
  9 55  1  0
 10 56  1  0
 14 57  1  0
 15 58  1  0
 17 59  1  0
 18 60  1  0
 21 61  1  0
 21 62  1  0
 21 63  1  0
 22 64  1  0
 23 65  1  0
 25 66  1  0
 26 67  1  0
 29 68  1  0
 29 69  1  0
 29 70  1  0
 30 71  1  0
 31 72  1  0
 32 73  1  0
 32 74  1  0
 34 75  1  0
 35 76  1  0
 43 77  1  0
 43 78  1  0
M  CHG  2   4   1  41  -1
M  END
>  <meeko>  (4) 
{"is_sidechain": [false], "free_energy": -6.309, "intermolecular_energy": -12.263, "internal_energy": -3.61}

$$$$
3zso_ligand
     RDKit          3D

 78 82  0  0  0  0  0  0  0  0999 V2000
    3.2910    2.5990   -7.8280 C   0  0  0  0  0  0  0  0  0  0  0  0
    3.5740    3.8760   -8.1190 C   0  0  0  0  0  0  0  0  0  0  0  0
    2.6880    4.7830   -8.9240 C   0  0  0  0  0  0  0  0  0  0  0  0
    1.8580    4.0210   -9.9190 N   0  0  2  0  0  0  0  0  0  0  0  0
    2.5970    3.8050  -11.2320 C   0  0  0  0  0  0  0  0  0  0  0  0
    3.1610    2.4150  -11.4330 C   0  0  0  0  0  0  0  0  0  0  0  0
    2.3040    1.3040  -11.4850 C   0  0  0  0  0  0  0  0  0  0  0  0
    2.8160    0.0250  -11.7210 C   0  0  0  0  0  0  0  0  0  0  0  0
    4.1850   -0.1640  -11.9130 C   0  0  0  0  0  0  0  0  0  0  0  0
    5.0510    0.9250  -11.8690 C   0  0  0  0  0  0  0  0  0  0  0  0
    4.5390    2.2030  -11.6290 C   0  0  0  0  0  0  0  0  0  0  0  0
    5.4750    3.3380  -11.5350 C   0  0  0  0  0  0  0  0  0  0  0  0
    5.8470    3.6880  -10.4220 O   0  0  0  0  0  0  0  0  0  0  0  0
    5.7600    3.9510  -12.7260 N   0  0  0  0  0  0  0  0  0  0  0  0
    6.3390    5.2890  -12.7520 C   0  0  0  0  0  0  0  0  0  0  0  0
    5.7070    6.0740  -13.8980 C   0  0  0  0  0  0  0  0  0  0  0  0
    6.1580    7.3770  -14.1630 C   0  0  0  0  0  0  0  0  0  0  0  0
    5.5730    8.1420  -15.1740 C   0  0  0  0  0  0  0  0  0  0  0  0
    4.5250    7.6320  -15.9400 C   0  0  0  0  0  0  0  0  0  0  0  0
    4.0450    8.4830  -16.8970 O   0  0  0  0  0  0  0  0  0  0  0  0
    3.9930    7.9880  -18.2290 C   0  0  0  0  0  0  0  0  0  0  0  0
    4.0560    6.3460  -15.6750 C   0  0  0  0  0  0  0  0  0  0  0  0
    4.6370    5.5770  -14.6580 C   0  0  0  0  0  0  0  0  0  0  0  0
    7.8660    5.2840  -12.7700 C   0  0  0  0  0  0  0  0  0  0  0  0
    8.5380    4.5230  -13.7420 C   0  0  0  0  0  0  0  0  0  0  0  0
    9.9360    4.4710  -13.7810 C   0  0  0  0  0  0  0  0  0  0  0  0
   10.6900    5.1760  -12.8440 C   0  0  0  0  0  0  0  0  0  0  0  0
   12.0550    5.2100  -12.7690 O   0  0  0  0  0  0  0  0  0  0  0  0
   12.7650    5.1830  -14.0010 C   0  0  0  0  0  0  0  0  0  0  0  0
   10.0320    5.9310  -11.8720 C   0  0  0  0  0  0  0  0  0  0  0  0
    8.6360    5.9850  -11.8300 C   0  0  0  0  0  0  0  0  0  0  0  0
    0.5350    4.7360  -10.1660 C   0  0  0  0  0  0  0  0  0  0  0  0
   -0.3350    4.0760  -11.2120 C   0  0  0  0  0  0  0  0  0  0  0  0
   -0.9280    2.8180  -10.9500 C   0  0  0  0  0  0  0  0  0  0  0  0
   -1.7120    2.1830  -11.9150 C   0  0  0  0  0  0  0  0  0  0  0  0
   -1.8850    2.8190  -13.1280 C   0  0  0  0  0  0  0  0  0  0  0  0
   -1.3140    4.0400  -13.4060 C   0  0  0  0  0  0  0  0  0  0  0  0
   -0.5340    4.6960  -12.4730 C   0  0  0  0  0  0  0  0  0  0  0  0
    0.1260    5.9960  -12.7790 C   0  0  0  0  0  0  0  0  0  0  0  0
    1.1540    5.9390  -13.5130 O   0  0  0  0  0  0  0  0  0  0  0  0
   -0.5250    7.0380  -12.4650 O   0  0  0  0  0  0  0  0  0  0  0  0
   -1.6220    4.4690  -14.6580 O   0  0  0  0  0  0  0  0  0  0  0  0
   -2.4500    3.3950  -15.1320 C   0  0  0  0  0  0  0  0  0  0  0  0
   -2.6150    2.3320  -14.1690 O   0  0  0  0  0  0  0  0  0  0  0  0
    3.9959    2.0017   -7.2310 H   0  0  0  0  0  0  0  0  0  0  0  0
    2.3538    2.1480   -8.1861 H   0  0  0  0  0  0  0  0  0  0  0  0
    4.5213    4.2888   -7.7420 H   0  0  0  0  0  0  0  0  0  0  0  0
    2.0162    5.3221   -8.2399 H   0  0  0  0  0  0  0  0  0  0  0  0
    3.3314    5.4800   -9.4810 H   0  0  0  0  0  0  0  0  0  0  0  0
    1.6440    3.0990   -9.5450 H   0  0  0  0  0  0  0  0  0  0  0  0
    1.8962    4.0101  -12.0547 H   0  0  0  0  0  0  0  0  0  0  0  0
    3.4614    4.4850  -11.2112 H   0  0  0  0  0  0  0  0  0  0  0  0
    1.2224    1.4411  -11.3390 H   0  0  0  0  0  0  0  0  0  0  0  0
    2.1351   -0.8383  -11.7556 H   0  0  0  0  0  0  0  0  0  0  0  0
    4.5800   -1.1736  -12.0992 H   0  0  0  0  0  0  0  0  0  0  0  0
    6.1307    0.7806  -12.0221 H   0  0  0  0  0  0  0  0  0  0  0  0
    5.2020    3.7020  -13.5340 H   0  0  0  0  0  0  0  0  0  0  0  0
    6.1002    5.8034  -11.8094 H   0  0  0  0  0  0  0  0  0  0  0  0
    6.9809    7.7996  -13.5678 H   0  0  0  0  0  0  0  0  0  0  0  0
    5.9432    9.1594  -15.3687 H   0  0  0  0  0  0  0  0  0  0  0  0
    3.8781    6.8942  -18.2095 H   0  0  0  0  0  0  0  0  0  0  0  0
    3.1371    8.4373  -18.7540 H   0  0  0  0  0  0  0  0  0  0  0  0
    4.9236    8.2496  -18.7540 H   0  0  0  0  0  0  0  0  0  0  0  0
    3.2260    5.9332  -16.2671 H   0  0  0  0  0  0  0  0  0  0  0  0
    4.2486    4.5686  -14.4522 H   0  0  0  0  0  0  0  0  0  0  0  0
    7.9551    3.9586  -14.4848 H   0  0  0  0  0  0  0  0  0  0  0  0
   10.4413    3.8722  -14.5531 H   0  0  0  0  0  0  0  0  0  0  0  0
   13.8458    5.1419  -13.8005 H   0  0  0  0  0  0  0  0  0  0  0  0
   12.4650    4.2956  -14.5777 H   0  0  0  0  0  0  0  0  0  0  0  0
   12.5333    6.0906  -14.5777 H   0  0  0  0  0  0  0  0  0  0  0  0
   10.6196    6.4908  -11.1294 H   0  0  0  0  0  0  0  0  0  0  0  0
    8.1367    6.5825  -11.0530 H   0  0  0  0  0  0  0  0  0  0  0  0
   -0.0243    4.7653   -9.2193 H   0  0  0  0  0  0  0  0  0  0  0  0
    0.7812    5.7393  -10.5438 H   0  0  0  0  0  0  0  0  0  0  0  0
   -0.7693    2.3349   -9.9746 H   0  0  0  0  0  0  0  0  0  0  0  0
   -2.1773    1.2065  -11.7151 H   0  0  0  0  0  0  0  0  0  0  0  0
   -3.4425    3.8014  -15.3766 H   0  0  0  0  0  0  0  0  0  0  0  0
   -1.9503    2.9627  -16.0114 H   0  0  0  0  0  0  0  0  0  0  0  0
  1  2  2  0
  2  3  1  0
  3  4  1  0
  4  5  1  0
  5  6  1  0
  6  7  2  0
  7  8  1  0
  8  9  2  0
  9 10  1  0
 10 11  2  0
 11 12  1  0
 12 13  2  0
 12 14  1  0
 14 15  1  0
 15 16  1  0
 16 17  2  0
 17 18  1  0
 18 19  2  0
 19 20  1  0
 20 21  1  0
 19 22  1  0
 22 23  2  0
 15 24  1  0
 24 25  2  0
 25 26  1  0
 26 27  2  0
 27 28  1  0
 28 29  1  0
 27 30  1  0
 30 31  2  0
  4 32  1  0
 32 33  1  0
 33 34  2  0
 34 35  1  0
 35 36  2  0
 36 37  1  0
 37 38  2  0
 38 39  1  0
 39 40  2  0
 39 41  1  0
 37 42  1  0
 42 43  1  0
 43 44  1  0
 11  6  1  0
 23 16  1  0
 31 24  1  0
 38 33  1  0
 44 36  1  0
  1 45  1  0
  1 46  1  0
  2 47  1  0
  3 48  1  0
  3 49  1  0
  4 50  1  1
  5 51  1  0
  5 52  1  0
  7 53  1  0
  8 54  1  0
  9 55  1  0
 10 56  1  0
 14 57  1  0
 15 58  1  0
 17 59  1  0
 18 60  1  0
 21 61  1  0
 21 62  1  0
 21 63  1  0
 22 64  1  0
 23 65  1  0
 25 66  1  0
 26 67  1  0
 29 68  1  0
 29 69  1  0
 29 70  1  0
 30 71  1  0
 31 72  1  0
 32 73  1  0
 32 74  1  0
 34 75  1  0
 35 76  1  0
 43 77  1  0
 43 78  1  0
M  CHG  2   4   1  41  -1
M  END
>  <meeko>  (5) 
{"is_sidechain": [false], "free_energy": -6.276, "intermolecular_energy": -12.176, "internal_energy": -3.64}

$$$$
3zso_ligand
     RDKit          3D

 78 82  0  0  0  0  0  0  0  0999 V2000
    7.7890    6.4060  -12.7650 C   0  0  0  0  0  0  0  0  0  0  0  0
    7.2250    5.3050  -12.2500 C   0  0  0  0  0  0  0  0  0  0  0  0
    6.3650    5.2830  -11.0190 C   0  0  0  0  0  0  0  0  0  0  0  0
    4.9180    5.0420  -11.3480 N   0  0  2  0  0  0  0  0  0  0  0  0
    4.1500    6.3430  -11.5320 C   0  0  0  0  0  0  0  0  0  0  0  0
    2.6720    6.2710  -11.2140 C   0  0  0  0  0  0  0  0  0  0  0  0
    2.2070    6.6080   -9.9320 C   0  0  0  0  0  0  0  0  0  0  0  0
    0.8390    6.5910   -9.6480 C   0  0  0  0  0  0  0  0  0  0  0  0
   -0.0840    6.2450  -10.6350 C   0  0  0  0  0  0  0  0  0  0  0  0
    0.3560    5.9100  -11.9130 C   0  0  0  0  0  0  0  0  0  0  0  0
    1.7260    5.9240  -12.1960 C   0  0  0  0  0  0  0  0  0  0  0  0
    2.1790    5.5180  -13.5380 C   0  0  0  0  0  0  0  0  0  0  0  0
    2.1820    6.3620  -14.4250 O   0  0  0  0  0  0  0  0  0  0  0  0
    2.4650    4.1860  -13.6720 N   0  0  0  0  0  0  0  0  0  0  0  0
    2.5440    3.5720  -14.9920 C   0  0  0  0  0  0  0  0  0  0  0  0
    1.4050    2.5660  -15.1340 C   0  0  0  0  0  0  0  0  0  0  0  0
    0.6410    2.5640  -16.3120 C   0  0  0  0  0  0  0  0  0  0  0  0
   -0.4380    1.6890  -16.4610 C   0  0  0  0  0  0  0  0  0  0  0  0
   -0.7830    0.8010  -15.4400 C   0  0  0  0  0  0  0  0  0  0  0  0
   -1.8560   -0.0000  -15.7140 O   0  0  0  0  0  0  0  0  0  0  0  0
   -2.0410   -0.3840  -17.0710 C   0  0  0  0  0  0  0  0  0  0  0  0
   -0.0430    0.8070  -14.2590 C   0  0  0  0  0  0  0  0  0  0  0  0
    1.0370    1.6870  -14.1040 C   0  0  0  0  0  0  0  0  0  0  0  0
    3.9230    2.9970  -15.3070 C   0  0  0  0  0  0  0  0  0  0  0  0
    4.0160    1.7720  -15.9910 C   0  0  0  0  0  0  0  0  0  0  0  0
    5.2580    1.1970  -16.2800 C   0  0  0  0  0  0  0  0  0  0  0  0
    6.4340    1.8330  -15.8860 C   0  0  0  0  0  0  0  0  0  0  0  0
    7.7070    1.3820  -16.1020 O   0  0  0  0  0  0  0  0  0  0  0  0
    8.4030    1.9380  -17.2110 C   0  0  0  0  0  0  0  0  0  0  0  0
    6.3530    3.0470  -15.2020 C   0  0  0  0  0  0  0  0  0  0  0  0
    5.1140    3.6250  -14.9120 C   0  0  0  0  0  0  0  0  0  0  0  0
    4.2620    4.1870  -10.2710 C   0  0  0  0  0  0  0  0  0  0  0  0
    3.8850    2.7980  -10.7330 C   0  0  0  0  0  0  0  0  0  0  0  0
    4.6710    2.1370  -11.7070 C   0  0  0  0  0  0  0  0  0  0  0  0
    4.3200    0.8650  -12.1630 C   0  0  0  0  0  0  0  0  0  0  0  0
    3.1880    0.2790  -11.6370 C   0  0  0  0  0  0  0  0  0  0  0  0
    2.4070    0.9040  -10.6920 C   0  0  0  0  0  0  0  0  0  0  0  0
    2.7260    2.1630  -10.2180 C   0  0  0  0  0  0  0  0  0  0  0  0
    1.8640    2.8680   -9.2290 C   0  0  0  0  0  0  0  0  0  0  0  0
    0.7240    3.2280   -9.6410 O   0  0  0  0  0  0  0  0  0  0  0  0
    2.2600    2.8400   -8.0250 O   0  0  0  0  0  0  0  0  0  0  0  0
    1.3470    0.1380  -10.3230 O   0  0  0  0  0  0  0  0  0  0  0  0
    1.5490   -1.0350  -11.1290 C   0  0  0  0  0  0  0  0  0  0  0  0
    2.7130   -0.9510  -11.9790 O   0  0  0  0  0  0  0  0  0  0  0  0
    8.4066    6.3345  -13.6725 H   0  0  0  0  0  0  0  0  0  0  0  0
    7.6344    7.3813  -12.2803 H   0  0  0  0  0  0  0  0  0  0  0  0
    7.4046    4.3499  -12.7652 H   0  0  0  0  0  0  0  0  0  0  0  0
    6.7167    4.4802  -10.3542 H   0  0  0  0  0  0  0  0  0  0  0  0
    6.4438    6.2659  -10.5315 H   0  0  0  0  0  0  0  0  0  0  0  0
    4.8520    4.5330  -12.2280 H   0  0  0  0  0  0  0  0  0  0  0  0
    4.6025    7.1008  -10.8755 H   0  0  0  0  0  0  0  0  0  0  0  0
    4.2198    6.5892  -12.6018 H   0  0  0  0  0  0  0  0  0  0  0  0
    2.9246    6.8871   -9.1464 H   0  0  0  0  0  0  0  0  0  0  0  0
    0.4874    6.8523   -8.6390 H   0  0  0  0  0  0  0  0  0  0  0  0
   -1.1594    6.2368  -10.4038 H   0  0  0  0  0  0  0  0  0  0  0  0
   -0.3683    5.6364  -12.6943 H   0  0  0  0  0  0  0  0  0  0  0  0
    2.1960    3.5640  -12.9180 H   0  0  0  0  0  0  0  0  0  0  0  0
    2.4141    4.3497  -15.7590 H   0  0  0  0  0  0  0  0  0  0  0  0
    0.8947    3.2587  -17.1263 H   0  0  0  0  0  0  0  0  0  0  0  0
   -1.0222    1.6997  -17.3930 H   0  0  0  0  0  0  0  0  0  0  0  0
   -2.5181   -1.3744  -17.1100 H   0  0  0  0  0  0  0  0  0  0  0  0
   -2.6831    0.3525  -17.5762 H   0  0  0  0  0  0  0  0  0  0  0  0
   -1.0648   -0.4271  -17.5762 H   0  0  0  0  0  0  0  0  0  0  0  0
   -0.3079    0.1174  -13.4440 H   0  0  0  0  0  0  0  0  0  0  0  0
    1.6041    1.6885  -13.1615 H   0  0  0  0  0  0  0  0  0  0  0  0
    3.0960    1.2568  -16.3043 H   0  0  0  0  0  0  0  0  0  0  0  0
    5.3067    0.2399  -16.8199 H   0  0  0  0  0  0  0  0  0  0  0  0
    9.2141    2.5860  -16.8474 H   0  0  0  0  0  0  0  0  0  0  0  0
    8.8271    1.1273  -17.8216 H   0  0  0  0  0  0  0  0  0  0  0  0
    7.7060    2.5307  -17.8216 H   0  0  0  0  0  0  0  0  0  0  0  0
    7.2763    3.5554  -14.8871 H   0  0  0  0  0  0  0  0  0  0  0  0
    5.0721    4.5808  -14.3692 H   0  0  0  0  0  0  0  0  0  0  0  0
    4.9637    4.0929   -9.4291 H   0  0  0  0  0  0  0  0  0  0  0  0
    3.3270    4.6931   -9.9888 H   0  0  0  0  0  0  0  0  0  0  0  0
    5.5680    2.6308  -12.1090 H   0  0  0  0  0  0  0  0  0  0  0  0
    4.9279    0.3461  -12.9188 H   0  0  0  0  0  0  0  0  0  0  0  0
    1.6661   -1.9013  -10.4613 H   0  0  0  0  0  0  0  0  0  0  0  0
    0.6724   -1.1333  -11.7862 H   0  0  0  0  0  0  0  0  0  0  0  0
  1  2  2  0
  2  3  1  0
  3  4  1  0
  4  5  1  0
  5  6  1  0
  6  7  2  0
  7  8  1  0
  8  9  2  0
  9 10  1  0
 10 11  2  0
 11 12  1  0
 12 13  2  0
 12 14  1  0
 14 15  1  0
 15 16  1  0
 16 17  2  0
 17 18  1  0
 18 19  2  0
 19 20  1  0
 20 21  1  0
 19 22  1  0
 22 23  2  0
 15 24  1  0
 24 25  2  0
 25 26  1  0
 26 27  2  0
 27 28  1  0
 28 29  1  0
 27 30  1  0
 30 31  2  0
  4 32  1  0
 32 33  1  0
 33 34  2  0
 34 35  1  0
 35 36  2  0
 36 37  1  0
 37 38  2  0
 38 39  1  0
 39 40  2  0
 39 41  1  0
 37 42  1  0
 42 43  1  0
 43 44  1  0
 11  6  1  0
 23 16  1  0
 31 24  1  0
 38 33  1  0
 44 36  1  0
  1 45  1  0
  1 46  1  0
  2 47  1  0
  3 48  1  0
  3 49  1  0
  4 50  1  6
  5 51  1  0
  5 52  1  0
  7 53  1  0
  8 54  1  0
  9 55  1  0
 10 56  1  0
 14 57  1  0
 15 58  1  0
 17 59  1  0
 18 60  1  0
 21 61  1  0
 21 62  1  0
 21 63  1  0
 22 64  1  0
 23 65  1  0
 25 66  1  0
 26 67  1  0
 29 68  1  0
 29 69  1  0
 29 70  1  0
 30 71  1  0
 31 72  1  0
 32 73  1  0
 32 74  1  0
 34 75  1  0
 35 76  1  0
 43 77  1  0
 43 78  1  0
M  CHG  2   4   1  41  -1
M  END
>  <meeko>  (6) 
{"is_sidechain": [false], "free_energy": -6.223, "intermolecular_energy": -10.878, "internal_energy": -4.844}

$$$$
3zso_ligand
     RDKit          3D

 78 82  0  0  0  0  0  0  0  0999 V2000
    6.7860    5.1500  -11.1170 C   0  0  0  0  0  0  0  0  0  0  0  0
    5.8400    4.3490  -10.6070 C   0  0  0  0  0  0  0  0  0  0  0  0
    4.4880    4.1290  -11.2200 C   0  0  0  0  0  0  0  0  0  0  0  0
    4.4750    2.9420  -12.1440 N   0  0  2  0  0  0  0  0  0  0  0  0
    3.4860    3.1190  -13.2870 C   0  0  0  0  0  0  0  0  0  0  0  0
    3.9040    2.5000  -14.6030 C   0  0  0  0  0  0  0  0  0  0  0  0
    5.0120    1.6400  -14.6600 C   0  0  0  0  0  0  0  0  0  0  0  0
    5.3720    1.0250  -15.8630 C   0  0  0  0  0  0  0  0  0  0  0  0
    4.6300    1.2540  -17.0230 C   0  0  0  0  0  0  0  0  0  0  0  0
    3.5250    2.1010  -16.9870 C   0  0  0  0  0  0  0  0  0  0  0  0
    3.1690    2.7180  -15.7840 C   0  0  0  0  0  0  0  0  0  0  0  0
    2.0280    3.6510  -15.7740 C   0  0  0  0  0  0  0  0  0  0  0  0
    2.2160    4.7960  -16.1630 O   0  0  0  0  0  0  0  0  0  0  0  0
    0.8760    3.1480  -15.2300 N   0  0  0  0  0  0  0  0  0  0  0  0
   -0.1930    4.0400  -14.8000 C   0  0  0  0  0  0  0  0  0  0  0  0
    0.1090    4.5210  -13.3840 C   0  0  0  0  0  0  0  0  0  0  0  0
   -0.5760    3.9390  -12.3050 C   0  0  0  0  0  0  0  0  0  0  0  0
   -0.3590    4.3850  -10.9990 C   0  0  0  0  0  0  0  0  0  0  0  0
    0.5390    5.4210  -10.7380 C   0  0  0  0  0  0  0  0  0  0  0  0
    0.6590    5.7580   -9.4180 O   0  0  0  0  0  0  0  0  0  0  0  0
    1.9340    6.2140   -8.9860 C   0  0  0  0  0  0  0  0  0  0  0  0
    1.2110    6.0180  -11.8020 C   0  0  0  0  0  0  0  0  0  0  0  0
    0.9920    5.5780  -13.1150 C   0  0  0  0  0  0  0  0  0  0  0  0
   -1.5860    3.4360  -14.9670 C   0  0  0  0  0  0  0  0  0  0  0  0
   -2.6280    4.2410  -15.4580 C   0  0  0  0  0  0  0  0  0  0  0  0
   -3.9250    3.7360  -15.6050 C   0  0  0  0  0  0  0  0  0  0  0  0
   -4.2060    2.4150  -15.2580 C   0  0  0  0  0  0  0  0  0  0  0  0
   -5.4240    1.7990  -15.3500 O   0  0  0  0  0  0  0  0  0  0  0  0
   -6.5440    2.6330  -15.6230 C   0  0  0  0  0  0  0  0  0  0  0  0
   -3.1800    1.6090  -14.7640 C   0  0  0  0  0  0  0  0  0  0  0  0
   -1.8840    2.1110  -14.6160 C   0  0  0  0  0  0  0  0  0  0  0  0
    4.1660    1.6680  -11.3680 C   0  0  0  0  0  0  0  0  0  0  0  0
    2.9250    1.7560  -10.5080 C   0  0  0  0  0  0  0  0  0  0  0  0
    2.9670    2.4430   -9.2720 C   0  0  0  0  0  0  0  0  0  0  0  0
    1.8370    2.5110   -8.4540 C   0  0  0  0  0  0  0  0  0  0  0  0
    0.6860    1.8870   -8.8890 C   0  0  0  0  0  0  0  0  0  0  0  0
    0.6240    1.2090  -10.0860 C   0  0  0  0  0  0  0  0  0  0  0  0
    1.7230    1.1240  -10.9190 C   0  0  0  0  0  0  0  0  0  0  0  0
    1.6810    0.3560  -12.1950 C   0  0  0  0  0  0  0  0  0  0  0  0
    2.0540   -0.8510  -12.1310 O   0  0  0  0  0  0  0  0  0  0  0  0
    1.0720    0.9110  -13.1590 O   0  0  0  0  0  0  0  0  0  0  0  0
   -0.6070    0.6770  -10.3030 O   0  0  0  0  0  0  0  0  0  0  0  0
   -1.3110    1.0980   -9.1220 C   0  0  0  0  0  0  0  0  0  0  0  0
   -0.4930    1.8590   -8.2090 O   0  0  0  0  0  0  0  0  0  0  0  0
    7.7529    5.2555  -10.6033 H   0  0  0  0  0  0  0  0  0  0  0  0
    6.5954    5.7019  -12.0492 H   0  0  0  0  0  0  0  0  0  0  0  0
    6.0709    3.8153   -9.6733 H   0  0  0  0  0  0  0  0  0  0  0  0
    3.7564    3.9612  -10.4159 H   0  0  0  0  0  0  0  0  0  0  0  0
    4.2329    5.0217  -11.8098 H   0  0  0  0  0  0  0  0  0  0  0  0
    5.3950    2.8320  -12.5640 H   0  0  0  0  0  0  0  0  0  0  0  0
    2.5316    2.6633  -12.9847 H   0  0  0  0  0  0  0  0  0  0  0  0
    3.4186    4.2021  -13.4671 H   0  0  0  0  0  0  0  0  0  0  0  0
    5.6015    1.4485  -13.7513 H   0  0  0  0  0  0  0  0  0  0  0  0
    6.2451    0.3567  -15.8955 H   0  0  0  0  0  0  0  0  0  0  0  0
    4.9180    0.7655  -17.9655 H   0  0  0  0  0  0  0  0  0  0  0  0
    2.9367    2.2832  -17.8984 H   0  0  0  0  0  0  0  0  0  0  0  0
    0.9290    2.2630  -14.7390 H   0  0  0  0  0  0  0  0  0  0  0  0
   -0.2178    4.9170  -15.4635 H   0  0  0  0  0  0  0  0  0  0  0  0
   -1.2907    3.1236  -12.4901 H   0  0  0  0  0  0  0  0  0  0  0  0
   -0.9023    3.9141  -10.1665 H   0  0  0  0  0  0  0  0  0  0  0  0
    1.9661    6.2255   -7.8865 H   0  0  0  0  0  0  0  0  0  0  0  0
    2.7138    5.5390   -9.3686 H   0  0  0  0  0  0  0  0  0  0  0  0
    2.1089    7.2304   -9.3686 H   0  0  0  0  0  0  0  0  0  0  0  0
    1.9174    6.8393  -11.6110 H   0  0  0  0  0  0  0  0  0  0  0  0
    1.5199    6.0683  -13.9462 H   0  0  0  0  0  0  0  0  0  0  0  0
   -2.4207    5.2861  -15.7315 H   0  0  0  0  0  0  0  0  0  0  0  0
   -4.7247    4.3828  -15.9952 H   0  0  0  0  0  0  0  0  0  0  0  0
   -6.9922    2.9668  -14.6755 H   0  0  0  0  0  0  0  0  0  0  0  0
   -6.2164    3.5089  -16.2023 H   0  0  0  0  0  0  0  0  0  0  0  0
   -7.2892    2.0681  -16.2023 H   0  0  0  0  0  0  0  0  0  0  0  0
   -3.3936    0.5659  -14.4877 H   0  0  0  0  0  0  0  0  0  0  0  0
   -1.0899    1.4607  -14.2204 H   0  0  0  0  0  0  0  0  0  0  0  0
    4.0295    0.8486  -12.0890 H   0  0  0  0  0  0  0  0  0  0  0  0
    5.0130    1.4973  -10.6872 H   0  0  0  0  0  0  0  0  0  0  0  0
    3.9003    2.9291   -8.9516 H   0  0  0  0  0  0  0  0  0  0  0  0
    1.8639    3.0454   -7.4929 H   0  0  0  0  0  0  0  0  0  0  0  0
   -2.1643    1.7210   -9.4280 H   0  0  0  0  0  0  0  0  0  0  0  0
   -1.6298    0.1884   -8.5920 H   0  0  0  0  0  0  0  0  0  0  0  0
  1  2  2  0
  2  3  1  0
  3  4  1  0
  4  5  1  0
  5  6  1  0
  6  7  2  0
  7  8  1  0
  8  9  2  0
  9 10  1  0
 10 11  2  0
 11 12  1  0
 12 13  2  0
 12 14  1  0
 14 15  1  0
 15 16  1  0
 16 17  2  0
 17 18  1  0
 18 19  2  0
 19 20  1  0
 20 21  1  0
 19 22  1  0
 22 23  2  0
 15 24  1  0
 24 25  2  0
 25 26  1  0
 26 27  2  0
 27 28  1  0
 28 29  1  0
 27 30  1  0
 30 31  2  0
  4 32  1  0
 32 33  1  0
 33 34  2  0
 34 35  1  0
 35 36  2  0
 36 37  1  0
 37 38  2  0
 38 39  1  0
 39 40  2  0
 39 41  1  0
 37 42  1  0
 42 43  1  0
 43 44  1  0
 11  6  1  0
 23 16  1  0
 31 24  1  0
 38 33  1  0
 44 36  1  0
  1 45  1  0
  1 46  1  0
  2 47  1  0
  3 48  1  0
  3 49  1  0
  4 50  1  6
  5 51  1  0
  5 52  1  0
  7 53  1  0
  8 54  1  0
  9 55  1  0
 10 56  1  0
 14 57  1  0
 15 58  1  0
 17 59  1  0
 18 60  1  0
 21 61  1  0
 21 62  1  0
 21 63  1  0
 22 64  1  0
 23 65  1  0
 25 66  1  0
 26 67  1  0
 29 68  1  0
 29 69  1  0
 29 70  1  0
 30 71  1  0
 31 72  1  0
 32 73  1  0
 32 74  1  0
 34 75  1  0
 35 76  1  0
 43 77  1  0
 43 78  1  0
M  CHG  2   4   1  41  -1
M  END
>  <meeko>  (7) 
{"is_sidechain": [false], "free_energy": -6.21, "intermolecular_energy": -12.247, "internal_energy": -3.452}

$$$$
3zso_ligand
     RDKit          3D

 78 82  0  0  0  0  0  0  0  0999 V2000
    6.5450    8.2490  -12.7010 C   0  0  0  0  0  0  0  0  0  0  0  0
    6.0490    7.1060  -12.2080 C   0  0  0  0  0  0  0  0  0  0  0  0
    6.5140    5.7350  -12.6010 C   0  0  0  0  0  0  0  0  0  0  0  0
    5.3620    4.8030  -12.8610 N   0  0  2  0  0  0  0  0  0  0  0  0
    5.2050    4.4880  -14.3420 C   0  0  0  0  0  0  0  0  0  0  0  0
    4.1160    5.2610  -15.0530 C   0  0  0  0  0  0  0  0  0  0  0  0
    4.2130    6.6560  -15.1910 C   0  0  0  0  0  0  0  0  0  0  0  0
    3.2350    7.3680  -15.8910 C   0  0  0  0  0  0  0  0  0  0  0  0
    2.1520    6.7030  -16.4660 C   0  0  0  0  0  0  0  0  0  0  0  0
    2.0390    5.3200  -16.3440 C   0  0  0  0  0  0  0  0  0  0  0  0
    3.0160    4.6090  -15.6400 C   0  0  0  0  0  0  0  0  0  0  0  0
    2.8550    3.1530  -15.4760 C   0  0  0  0  0  0  0  0  0  0  0  0
    3.3730    2.4180  -16.3060 O   0  0  0  0  0  0  0  0  0  0  0  0
    2.0440    2.7760  -14.4390 N   0  0  0  0  0  0  0  0  0  0  0  0
    1.4840    1.4310  -14.3840 C   0  0  0  0  0  0  0  0  0  0  0  0
   -0.0380    1.5330  -14.4000 C   0  0  0  0  0  0  0  0  0  0  0  0
   -0.7660    0.7340  -15.2960 C   0  0  0  0  0  0  0  0  0  0  0  0
   -2.1570    0.8310  -15.3710 C   0  0  0  0  0  0  0  0  0  0  0  0
   -2.8550    1.7290  -14.5610 C   0  0  0  0  0  0  0  0  0  0  0  0
   -4.2110    1.7230  -14.7320 O   0  0  0  0  0  0  0  0  0  0  0  0
   -4.7500    2.6910  -15.6240 C   0  0  0  0  0  0  0  0  0  0  0  0
   -2.1420    2.5410  -13.6810 C   0  0  0  0  0  0  0  0  0  0  0  0
   -0.7450    2.4490  -13.6060 C   0  0  0  0  0  0  0  0  0  0  0  0
    2.0390    0.5930  -13.2340 C   0  0  0  0  0  0  0  0  0  0  0  0
    1.1450   -0.0490  -12.3610 C   0  0  0  0  0  0  0  0  0  0  0  0
    1.6080   -0.8080  -11.2800 C   0  0  0  0  0  0  0  0  0  0  0  0
    2.9770   -0.9340  -11.0480 C   0  0  0  0  0  0  0  0  0  0  0  0
    3.5610   -1.6400  -10.0320 O   0  0  0  0  0  0  0  0  0  0  0  0
    3.3380   -3.0440  -10.0190 C   0  0  0  0  0  0  0  0  0  0  0  0
    3.8730   -0.2940  -11.9060 C   0  0  0  0  0  0  0  0  0  0  0  0
    3.4130    0.4640  -12.9860 C   0  0  0  0  0  0  0  0  0  0  0  0
    4.0700    5.3850  -12.3020 C   0  0  0  0  0  0  0  0  0  0  0  0
    3.3020    4.4340  -11.4120 C   0  0  0  0  0  0  0  0  0  0  0  0
    3.9830    3.4070  -10.7170 C   0  0  0  0  0  0  0  0  0  0  0  0
    3.2840    2.5050   -9.9120 C   0  0  0  0  0  0  0  0  0  0  0  0
    1.9140    2.6470   -9.8210 C   0  0  0  0  0  0  0  0  0  0  0  0
    1.2310    3.6360  -10.4910 C   0  0  0  0  0  0  0  0  0  0  0  0
    1.8920    4.5460  -11.2950 C   0  0  0  0  0  0  0  0  0  0  0  0
    1.1590    5.5920  -12.0600 C   0  0  0  0  0  0  0  0  0  0  0  0
    0.7090    5.2430  -13.1890 O   0  0  0  0  0  0  0  0  0  0  0  0
    0.8650    6.6470  -11.4200 O   0  0  0  0  0  0  0  0  0  0  0  0
   -0.1050    3.5810  -10.2510 O   0  0  0  0  0  0  0  0  0  0  0  0
   -0.1870    2.4600   -9.3550 C   0  0  0  0  0  0  0  0  0  0  0  0
    1.0930    1.8500   -9.0840 O   0  0  0  0  0  0  0  0  0  0  0  0
    6.1460    9.2149  -12.3578 H   0  0  0  0  0  0  0  0  0  0  0  0
    7.3512    8.2214  -13.4489 H   0  0  0  0  0  0  0  0  0  0  0  0
    5.2437    7.1781  -11.4622 H   0  0  0  0  0  0  0  0  0  0  0  0
    7.1204    5.8140  -13.5154 H   0  0  0  0  0  0  0  0  0  0  0  0
    7.1028    5.3238  -11.7678 H   0  0  0  0  0  0  0  0  0  0  0  0
    5.5320    3.9180  -12.3870 H   0  0  0  0  0  0  0  0  0  0  0  0
    6.1604    4.7096  -14.8402 H   0  0  0  0  0  0  0  0  0  0  0  0
    4.9148    3.4286  -14.3997 H   0  0  0  0  0  0  0  0  0  0  0  0
    5.0643    7.1912  -14.7451 H   0  0  0  0  0  0  0  0  0  0  0  0
    3.3199    8.4603  -15.9892 H   0  0  0  0  0  0  0  0  0  0  0  0
    1.3870    7.2708  -17.0159 H   0  0  0  0  0  0  0  0  0  0  0  0
    1.1879    4.7912  -16.7979 H   0  0  0  0  0  0  0  0  0  0  0  0
    1.4970    3.4940  -13.9770 H   0  0  0  0  0  0  0  0  0  0  0  0
    1.8011    0.8725  -15.2770 H   0  0  0  0  0  0  0  0  0  0  0  0
   -0.2346    0.0235  -15.9463 H   0  0  0  0  0  0  0  0  0  0  0  0
   -2.7092    0.1926  -16.0763 H   0  0  0  0  0  0  0  0  0  0  0  0
   -5.2053    3.5088  -15.0461 H   0  0  0  0  0  0  0  0  0  0  0  0
   -3.9460    3.0934  -16.2579 H   0  0  0  0  0  0  0  0  0  0  0  0
   -5.5154    2.2195  -16.2579 H   0  0  0  0  0  0  0  0  0  0  0  0
   -2.6781    3.2579  -13.0418 H   0  0  0  0  0  0  0  0  0  0  0  0
   -0.1951    3.1044  -12.9146 H   0  0  0  0  0  0  0  0  0  0  0  0
    0.0623    0.0465  -12.5299 H   0  0  0  0  0  0  0  0  0  0  0  0
    0.8901   -1.3063  -10.6119 H   0  0  0  0  0  0  0  0  0  0  0  0
    3.2820   -3.3967   -8.9786 H   0  0  0  0  0  0  0  0  0  0  0  0
    2.3927   -3.2699  -10.5342 H   0  0  0  0  0  0  0  0  0  0  0  0
    4.1668   -3.5517  -10.5342 H   0  0  0  0  0  0  0  0  0  0  0  0
    4.9547   -0.3875  -11.7297 H   0  0  0  0  0  0  0  0  0  0  0  0
    4.1355    0.9641  -13.6477 H   0  0  0  0  0  0  0  0  0  0  0  0
    4.3196    6.2819  -11.7160 H   0  0  0  0  0  0  0  0  0  0  0  0
    3.4227    5.6083  -13.1629 H   0  0  0  0  0  0  0  0  0  0  0  0
    5.0753    3.3180  -10.8118 H   0  0  0  0  0  0  0  0  0  0  0  0
    3.8088    1.7063   -9.3674 H   0  0  0  0  0  0  0  0  0  0  0  0
   -0.6179    2.8046   -8.4034 H   0  0  0  0  0  0  0  0  0  0  0  0
   -0.8137    1.6987   -9.8426 H   0  0  0  0  0  0  0  0  0  0  0  0
  1  2  2  0
  2  3  1  0
  3  4  1  0
  4  5  1  0
  5  6  1  0
  6  7  2  0
  7  8  1  0
  8  9  2  0
  9 10  1  0
 10 11  2  0
 11 12  1  0
 12 13  2  0
 12 14  1  0
 14 15  1  0
 15 16  1  0
 16 17  2  0
 17 18  1  0
 18 19  2  0
 19 20  1  0
 20 21  1  0
 19 22  1  0
 22 23  2  0
 15 24  1  0
 24 25  2  0
 25 26  1  0
 26 27  2  0
 27 28  1  0
 28 29  1  0
 27 30  1  0
 30 31  2  0
  4 32  1  0
 32 33  1  0
 33 34  2  0
 34 35  1  0
 35 36  2  0
 36 37  1  0
 37 38  2  0
 38 39  1  0
 39 40  2  0
 39 41  1  0
 37 42  1  0
 42 43  1  0
 43 44  1  0
 11  6  1  0
 23 16  1  0
 31 24  1  0
 38 33  1  0
 44 36  1  0
  1 45  1  0
  1 46  1  0
  2 47  1  0
  3 48  1  0
  3 49  1  0
  4 50  1  1
  5 51  1  0
  5 52  1  0
  7 53  1  0
  8 54  1  0
  9 55  1  0
 10 56  1  0
 14 57  1  0
 15 58  1  0
 17 59  1  0
 18 60  1  0
 21 61  1  0
 21 62  1  0
 21 63  1  0
 22 64  1  0
 23 65  1  0
 25 66  1  0
 26 67  1  0
 29 68  1  0
 29 69  1  0
 29 70  1  0
 30 71  1  0
 31 72  1  0
 32 73  1  0
 32 74  1  0
 34 75  1  0
 35 76  1  0
 43 77  1  0
 43 78  1  0
M  CHG  2   4   1  41  -1
M  END
>  <meeko>  (8) 
{"is_sidechain": [false], "free_energy": -6.184, "intermolecular_energy": -10.745, "internal_energy": -4.908}

$$$$
3zso_ligand
     RDKit          3D

 78 82  0  0  0  0  0  0  0  0999 V2000
    3.2040   -1.3230  -10.6760 C   0  0  0  0  0  0  0  0  0  0  0  0
    2.0840   -1.1880  -11.4000 C   0  0  0  0  0  0  0  0  0  0  0  0
    1.7930   -0.0340  -12.3140 C   0  0  0  0  0  0  0  0  0  0  0  0
    1.8340    1.2830  -11.5890 N   0  0  2  0  0  0  0  0  0  0  0  0
    0.5010    1.6170  -10.9360 C   0  0  0  0  0  0  0  0  0  0  0  0
    0.2300    3.0930  -10.7400 C   0  0  0  0  0  0  0  0  0  0  0  0
    1.0130    3.8430   -9.8480 C   0  0  0  0  0  0  0  0  0  0  0  0
    0.8000    5.2170   -9.7010 C   0  0  0  0  0  0  0  0  0  0  0  0
   -0.1890    5.8620  -10.4450 C   0  0  0  0  0  0  0  0  0  0  0  0
   -0.9740    5.1370  -11.3380 C   0  0  0  0  0  0  0  0  0  0  0  0
   -0.7620    3.7620  -11.4800 C   0  0  0  0  0  0  0  0  0  0  0  0
   -1.6350    3.0000  -12.3920 C   0  0  0  0  0  0  0  0  0  0  0  0
   -2.4160    2.1940  -11.9030 O   0  0  0  0  0  0  0  0  0  0  0  0
   -1.4050    3.2150  -13.7240 N   0  0  0  0  0  0  0  0  0  0  0  0
   -1.8980    2.2750  -14.7240 C   0  0  0  0  0  0  0  0  0  0  0  0
   -0.8770    2.1810  -15.8540 C   0  0  0  0  0  0  0  0  0  0  0  0
   -1.1750    1.3970  -16.9800 C   0  0  0  0  0  0  0  0  0  0  0  0
   -0.2470    1.2500  -18.0130 C   0  0  0  0  0  0  0  0  0  0  0  0
    0.9990    1.8760  -17.9480 C   0  0  0  0  0  0  0  0  0  0  0  0
    1.8110    1.6530  -19.0250 O   0  0  0  0  0  0  0  0  0  0  0  0
    2.7950    2.6400  -19.3030 C   0  0  0  0  0  0  0  0  0  0  0  0
    1.3140    2.6420  -16.8280 C   0  0  0  0  0  0  0  0  0  0  0  0
    0.3870    2.7870  -15.7860 C   0  0  0  0  0  0  0  0  0  0  0  0
   -3.3180    2.5850  -15.1940 C   0  0  0  0  0  0  0  0  0  0  0  0
   -3.5920    3.8400  -15.7650 C   0  0  0  0  0  0  0  0  0  0  0  0
   -4.8840    4.1750  -16.1880 C   0  0  0  0  0  0  0  0  0  0  0  0
   -5.9270    3.2630  -16.0430 C   0  0  0  0  0  0  0  0  0  0  0  0
   -7.2300    3.4630  -16.4100 O   0  0  0  0  0  0  0  0  0  0  0  0
   -7.4640    3.8240  -17.7660 C   0  0  0  0  0  0  0  0  0  0  0  0
   -5.6670    2.0160  -15.4720 C   0  0  0  0  0  0  0  0  0  0  0  0
   -4.3780    1.6790  -15.0490 C   0  0  0  0  0  0  0  0  0  0  0  0
    2.2550    2.3990  -12.5370 C   0  0  0  0  0  0  0  0  0  0  0  0
    3.5190    3.1160  -12.1200 C   0  0  0  0  0  0  0  0  0  0  0  0
    4.3770    2.5370  -11.1550 C   0  0  0  0  0  0  0  0  0  0  0  0
    5.5350    3.1990  -10.7400 C   0  0  0  0  0  0  0  0  0  0  0  0
    5.8090    4.4320  -11.2970 C   0  0  0  0  0  0  0  0  0  0  0  0
    4.9860    5.0160  -12.2320 C   0  0  0  0  0  0  0  0  0  0  0  0
    3.8340    4.3870  -12.6660 C   0  0  0  0  0  0  0  0  0  0  0  0
    2.9130    5.0290  -13.6450 C   0  0  0  0  0  0  0  0  0  0  0  0
    2.0530    5.8220  -13.1630 O   0  0  0  0  0  0  0  0  0  0  0  0
    3.2190    4.8960  -14.8680 O   0  0  0  0  0  0  0  0  0  0  0  0
    5.4560    6.2250  -12.6360 O   0  0  0  0  0  0  0  0  0  0  0  0
    6.6620    6.3340  -11.8620 C   0  0  0  0  0  0  0  0  0  0  0  0
    6.8900    5.2020  -10.9970 O   0  0  0  0  0  0  0  0  0  0  0  0
    3.3381   -2.2026  -10.0292 H   0  0  0  0  0  0  0  0  0  0  0  0
    3.9890   -0.5542  -10.7287 H   0  0  0  0  0  0  0  0  0  0  0  0
    1.3243   -1.9793  -11.3183 H   0  0  0  0  0  0  0  0  0  0  0  0
    2.5432   -0.0201  -13.1184 H   0  0  0  0  0  0  0  0  0  0  0  0
    0.7788   -0.1680  -12.7182 H   0  0  0  0  0  0  0  0  0  0  0  0
    2.5250    1.2350  -10.8430 H   0  0  0  0  0  0  0  0  0  0  0  0
   -0.2998    1.2052  -11.5677 H   0  0  0  0  0  0  0  0  0  0  0  0
    0.5367    1.1773   -9.9283 H   0  0  0  0  0  0  0  0  0  0  0  0
    1.7994    3.3462   -9.2608 H   0  0  0  0  0  0  0  0  0  0  0  0
    1.4157    5.7931   -8.9946 H   0  0  0  0  0  0  0  0  0  0  0  0
   -0.3486    6.9438  -10.3260 H   0  0  0  0  0  0  0  0  0  0  0  0
   -1.7542    5.6416  -11.9267 H   0  0  0  0  0  0  0  0  0  0  0  0
   -0.5740    3.7330  -13.9860 H   0  0  0  0  0  0  0  0  0  0  0  0
   -1.9962    1.2801  -14.2651 H   0  0  0  0  0  0  0  0  0  0  0  0
   -2.1503    0.8930  -17.0492 H   0  0  0  0  0  0  0  0  0  0  0  0
   -0.5008    0.6338  -18.8881 H   0  0  0  0  0  0  0  0  0  0  0  0
    3.1921    3.0383  -18.3577 H   0  0  0  0  0  0  0  0  0  0  0  0
    3.6133    2.1887  -19.8833 H   0  0  0  0  0  0  0  0  0  0  0  0
    2.3412    3.4569  -19.8833 H   0  0  0  0  0  0  0  0  0  0  0  0
    2.2948    3.1355  -16.7607 H   0  0  0  0  0  0  0  0  0  0  0  0
    0.6545    3.3846  -14.9021 H   0  0  0  0  0  0  0  0  0  0  0  0
   -2.7781    4.5708  -15.8814 H   0  0  0  0  0  0  0  0  0  0  0  0
   -5.0760    5.1611  -16.6361 H   0  0  0  0  0  0  0  0  0  0  0  0
   -8.0620    4.7466  -17.8019 H   0  0  0  0  0  0  0  0  0  0  0  0
   -6.5018    3.9908  -18.2723 H   0  0  0  0  0  0  0  0  0  0  0  0
   -8.0091    3.0138  -18.2723 H   0  0  0  0  0  0  0  0  0  0  0  0
   -6.4854    1.2906  -15.3536 H   0  0  0  0  0  0  0  0  0  0  0  0
   -4.1935    0.6929  -14.5978 H   0  0  0  0  0  0  0  0  0  0  0  0
    2.4174    1.9632  -13.5338 H   0  0  0  0  0  0  0  0  0  0  0  0
    1.4476    3.1460  -12.5276 H   0  0  0  0  0  0  0  0  0  0  0  0
    4.1293    1.5545  -10.7268 H   0  0  0  0  0  0  0  0  0  0  0  0
    6.2073    2.7519   -9.9929 H   0  0  0  0  0  0  0  0  0  0  0  0
    7.5134    6.4223  -12.5529 H   0  0  0  0  0  0  0  0  0  0  0  0
    6.5566    7.2196  -11.2181 H   0  0  0  0  0  0  0  0  0  0  0  0
  1  2  2  0
  2  3  1  0
  3  4  1  0
  4  5  1  0
  5  6  1  0
  6  7  2  0
  7  8  1  0
  8  9  2  0
  9 10  1  0
 10 11  2  0
 11 12  1  0
 12 13  2  0
 12 14  1  0
 14 15  1  0
 15 16  1  0
 16 17  2  0
 17 18  1  0
 18 19  2  0
 19 20  1  0
 20 21  1  0
 19 22  1  0
 22 23  2  0
 15 24  1  0
 24 25  2  0
 25 26  1  0
 26 27  2  0
 27 28  1  0
 28 29  1  0
 27 30  1  0
 30 31  2  0
  4 32  1  0
 32 33  1  0
 33 34  2  0
 34 35  1  0
 35 36  2  0
 36 37  1  0
 37 38  2  0
 38 39  1  0
 39 40  2  0
 39 41  1  0
 37 42  1  0
 42 43  1  0
 43 44  1  0
 11  6  1  0
 23 16  1  0
 31 24  1  0
 38 33  1  0
 44 36  1  0
  1 45  1  0
  1 46  1  0
  2 47  1  0
  3 48  1  0
  3 49  1  0
  4 50  1  1
  5 51  1  0
  5 52  1  0
  7 53  1  0
  8 54  1  0
  9 55  1  0
 10 56  1  0
 14 57  1  0
 15 58  1  0
 17 59  1  0
 18 60  1  0
 21 61  1  0
 21 62  1  0
 21 63  1  0
 22 64  1  0
 23 65  1  0
 25 66  1  0
 26 67  1  0
 29 68  1  0
 29 69  1  0
 29 70  1  0
 30 71  1  0
 31 72  1  0
 32 73  1  0
 32 74  1  0
 34 75  1  0
 35 76  1  0
 43 77  1  0
 43 78  1  0
M  CHG  2   4   1  41  -1
M  END
>  <meeko>  (9) 
{"is_sidechain": [false], "free_energy": -6.177, "intermolecular_energy": -12.169, "internal_energy": -3.473}

$$$$
