3wtj_ligand
     RDKit          3D

 25 26  0  0  0  0  0  0  0  0999 V2000
   -6.3940  -13.6650    3.0350 N   0  0  0  0  0  0  0  0  0  0  0  0
   -5.3290  -13.2680    2.8080 C   0  0  0  0  0  0  0  0  0  0  0  0
   -4.1180  -12.7800    2.5220 N   0  0  0  0  0  0  0  0  0  0  0  0
   -3.0650  -13.3730    2.9760 C   0  0  0  0  0  0  0  0  0  0  0  0
   -3.0590  -14.8290    3.9820 S   0  0  0  0  0  0  0  0  0  0  0  0
   -1.2720  -15.0670    3.7750 C   0  0  0  0  0  0  0  0  0  0  0  0
   -0.7400  -13.6660    3.5070 C   0  0  0  0  0  0  0  0  0  0  0  0
   -1.7680  -12.9680    2.7460 N   0  0  0  0  0  0  0  0  0  0  0  0
   -1.4300  -11.7130    2.1000 C   0  0  0  0  0  0  0  0  0  0  0  0
   -1.0390  -10.6850    3.1280 C   0  0  0  0  0  0  0  0  0  0  0  0
    0.2560  -10.1570    3.1790 C   0  0  0  0  0  0  0  0  0  0  0  0
    0.5800   -9.2130    4.1490 C   0  0  0  0  0  0  0  0  0  0  0  0
   -0.4100   -8.8300    5.0360 C   0  0  0  0  0  0  0  0  0  0  0  0
   -0.0960   -7.6770    6.2630 Cl  0  0  0  0  0  0  0  0  0  0  0  0
   -1.6710   -9.3100    5.0220 N   0  0  0  0  0  0  0  0  0  0  0  0
   -1.9550  -10.2230    4.0680 C   0  0  0  0  0  0  0  0  0  0  0  0
   -0.8254  -15.4862    4.6887 H   0  0  0  0  0  0  0  0  0  0  0  0
   -1.0307  -15.7724    2.9662 H   0  0  0  0  0  0  0  0  0  0  0  0
   -0.5507  -13.1440    4.4566 H   0  0  0  0  0  0  0  0  0  0  0  0
    0.2087  -13.7018    2.9515 H   0  0  0  0  0  0  0  0  0  0  0  0
   -0.5884  -11.8749    1.4104 H   0  0  0  0  0  0  0  0  0  0  0  0
   -2.3071  -11.3486    1.5451 H   0  0  0  0  0  0  0  0  0  0  0  0
    1.0154  -10.4870    2.4548 H   0  0  0  0  0  0  0  0  0  0  0  0
    1.5915   -8.7849    4.2084 H   0  0  0  0  0  0  0  0  0  0  0  0
   -2.9772  -10.6277    4.0318 H   0  0  0  0  0  0  0  0  0  0  0  0
  1  2  3  0
  2  3  1  0
  3  4  2  0
  4  5  1  0
  5  6  1  0
  6  7  1  0
  7  8  1  0
  8  9  1  0
  9 10  1  0
 10 11  2  0
 11 12  1  0
 12 13  2  0
 13 14  1  0
 13 15  1  0
 15 16  2  0
  8  4  1  0
 16 10  1  0
  6 17  1  0
  6 18  1  0
  7 19  1  0
  7 20  1  0
  9 21  1  0
  9 22  1  0
 11 23  1  0
 12 24  1  0
 16 25  1  0
M  END
>  <meeko>  (1) 
{"is_sidechain": [false], "free_energy": -6.208, "intermolecular_energy": -6.934, "internal_energy": -0.243}

$$$$
3wtj_ligand
     RDKit          3D

 25 26  0  0  0  0  0  0  0  0999 V2000
   -0.5240  -15.9050    5.2820 N   0  0  0  0  0  0  0  0  0  0  0  0
   -0.7200  -14.9890    4.5980 C   0  0  0  0  0  0  0  0  0  0  0  0
   -0.9070  -13.9200    3.8190 N   0  0  0  0  0  0  0  0  0  0  0  0
   -2.0650  -13.7060    3.2920 C   0  0  0  0  0  0  0  0  0  0  0  0
   -3.4950  -14.7270    3.5050 S   0  0  0  0  0  0  0  0  0  0  0  0
   -4.5950  -13.4860    2.7670 C   0  0  0  0  0  0  0  0  0  0  0  0
   -3.6870  -12.6930    1.8380 C   0  0  0  0  0  0  0  0  0  0  0  0
   -2.3790  -12.6410    2.4770 N   0  0  0  0  0  0  0  0  0  0  0  0
   -1.3880  -11.7100    1.9670 C   0  0  0  0  0  0  0  0  0  0  0  0
   -1.0540  -10.6780    3.0110 C   0  0  0  0  0  0  0  0  0  0  0  0
    0.2400  -10.1630    3.1430 C   0  0  0  0  0  0  0  0  0  0  0  0
    0.5090   -9.2140    4.1260 C   0  0  0  0  0  0  0  0  0  0  0  0
   -0.5330   -8.8150    4.9430 C   0  0  0  0  0  0  0  0  0  0  0  0
   -0.2890   -7.6550    6.1800 Cl  0  0  0  0  0  0  0  0  0  0  0  0
   -1.7950   -9.2830    4.8510 N   0  0  0  0  0  0  0  0  0  0  0  0
   -2.0260  -10.2000    3.8870 C   0  0  0  0  0  0  0  0  0  0  0  0
   -5.4059  -13.9691    2.2022 H   0  0  0  0  0  0  0  0  0  0  0  0
   -5.0846  -12.8528    3.5216 H   0  0  0  0  0  0  0  0  0  0  0  0
   -3.6125  -13.1941    0.8616 H   0  0  0  0  0  0  0  0  0  0  0  0
   -4.0836  -11.6818    1.6645 H   0  0  0  0  0  0  0  0  0  0  0  0
   -0.4756  -12.2625    1.6981 H   0  0  0  0  0  0  0  0  0  0  0  0
   -1.7966  -11.2028    1.0806 H   0  0  0  0  0  0  0  0  0  0  0  0
    1.0419  -10.5064    2.4729 H   0  0  0  0  0  0  0  0  0  0  0  0
    1.5186   -8.7949    4.2488 H   0  0  0  0  0  0  0  0  0  0  0  0
   -3.0477  -10.5951    3.7870 H   0  0  0  0  0  0  0  0  0  0  0  0
  1  2  3  0
  2  3  1  0
  3  4  2  0
  4  5  1  0
  5  6  1  0
  6  7  1  0
  7  8  1  0
  8  9  1  0
  9 10  1  0
 10 11  2  0
 11 12  1  0
 12 13  2  0
 13 14  1  0
 13 15  1  0
 15 16  2  0
  8  4  1  0
 16 10  1  0
  6 17  1  0
  6 18  1  0
  7 19  1  0
  7 20  1  0
  9 21  1  0
  9 22  1  0
 11 23  1  0
 12 24  1  0
 16 25  1  0
M  END
>  <meeko>  (2) 
{"is_sidechain": [false], "free_energy": -6.14, "intermolecular_energy": -6.941, "internal_energy": -0.16}

$$$$
3wtj_ligand
     RDKit          3D

 25 26  0  0  0  0  0  0  0  0999 V2000
   -5.9500  -13.9620    3.6720 N   0  0  0  0  0  0  0  0  0  0  0  0
   -5.2550  -13.0370    3.7490 C   0  0  0  0  0  0  0  0  0  0  0  0
   -4.4830  -11.9510    3.8610 N   0  0  0  0  0  0  0  0  0  0  0  0
   -3.3690  -11.8880    3.2130 C   0  0  0  0  0  0  0  0  0  0  0  0
   -2.7290  -13.1450    2.1440 S   0  0  0  0  0  0  0  0  0  0  0  0
   -1.4480  -12.0450    1.4780 C   0  0  0  0  0  0  0  0  0  0  0  0
   -1.2080  -11.0370    2.5940 C   0  0  0  0  0  0  0  0  0  0  0  0
   -2.4940  -10.8250    3.2460 N   0  0  0  0  0  0  0  0  0  0  0  0
   -2.6380   -9.7040    4.1590 C   0  0  0  0  0  0  0  0  0  0  0  0
   -1.6110   -9.7880    5.2560 C   0  0  0  0  0  0  0  0  0  0  0  0
   -0.7800   -8.7050    5.5650 C   0  0  0  0  0  0  0  0  0  0  0  0
    0.1620   -8.8240    6.5820 C   0  0  0  0  0  0  0  0  0  0  0  0
    0.2380  -10.0300    7.2550 C   0  0  0  0  0  0  0  0  0  0  0  0
    1.3720  -10.2640    8.5180 Cl  0  0  0  0  0  0  0  0  0  0  0  0
   -0.5420  -11.0990    6.9940 N   0  0  0  0  0  0  0  0  0  0  0  0
   -1.4480  -10.9510    6.0030 C   0  0  0  0  0  0  0  0  0  0  0  0
   -0.5288  -12.6063    1.2543 H   0  0  0  0  0  0  0  0  0  0  0  0
   -1.7505  -11.5668    0.5347 H   0  0  0  0  0  0  0  0  0  0  0  0
   -0.4780  -11.4347    3.3144 H   0  0  0  0  0  0  0  0  0  0  0  0
   -0.8037  -10.0941    2.1972 H   0  0  0  0  0  0  0  0  0  0  0  0
   -2.5002   -8.7642    3.6042 H   0  0  0  0  0  0  0  0  0  0  0  0
   -3.6425   -9.7339    4.6064 H   0  0  0  0  0  0  0  0  0  0  0  0
   -0.8714   -7.7624    5.0054 H   0  0  0  0  0  0  0  0  0  0  0  0
    0.8251   -7.9858    6.8425 H   0  0  0  0  0  0  0  0  0  0  0  0
   -2.1000  -11.8061    5.7711 H   0  0  0  0  0  0  0  0  0  0  0  0
  1  2  3  0
  2  3  1  0
  3  4  2  0
  4  5  1  0
  5  6  1  0
  6  7  1  0
  7  8  1  0
  8  9  1  0
  9 10  1  0
 10 11  2  0
 11 12  1  0
 12 13  2  0
 13 14  1  0
 13 15  1  0
 15 16  2  0
  8  4  1  0
 16 10  1  0
  6 17  1  0
  6 18  1  0
  7 19  1  0
  7 20  1  0
  9 21  1  0
  9 22  1  0
 11 23  1  0
 12 24  1  0
 16 25  1  0
M  END
>  <meeko>  (3) 
{"is_sidechain": [false], "free_energy": -6.036, "intermolecular_energy": -6.853, "internal_energy": -0.132}

$$$$
3wtj_ligand
     RDKit          3D

 25 26  0  0  0  0  0  0  0  0999 V2000
   -5.1950  -13.9220    6.7690 N   0  0  0  0  0  0  0  0  0  0  0  0
   -4.3040  -13.6740    6.0710 C   0  0  0  0  0  0  0  0  0  0  0  0
   -3.2510  -13.3800    5.3000 N   0  0  0  0  0  0  0  0  0  0  0  0
   -3.3920  -13.3270    4.0180 C   0  0  0  0  0  0  0  0  0  0  0  0
   -4.8990  -13.6140    3.1370 S   0  0  0  0  0  0  0  0  0  0  0  0
   -4.2110  -12.9740    1.5840 C   0  0  0  0  0  0  0  0  0  0  0  0
   -2.7130  -13.2120    1.7160 C   0  0  0  0  0  0  0  0  0  0  0  0
   -2.3860  -13.0330    3.1240 N   0  0  0  0  0  0  0  0  0  0  0  0
   -0.9900  -12.9130    3.5090 C   0  0  0  0  0  0  0  0  0  0  0  0
   -0.7380  -11.5740    4.1490 C   0  0  0  0  0  0  0  0  0  0  0  0
   -1.0710  -10.3790    3.5010 C   0  0  0  0  0  0  0  0  0  0  0  0
   -0.8160   -9.1610    4.1240 C   0  0  0  0  0  0  0  0  0  0  0  0
   -0.2330   -9.1860    5.3790 C   0  0  0  0  0  0  0  0  0  0  0  0
    0.1190   -7.7320    6.2150 Cl  0  0  0  0  0  0  0  0  0  0  0  0
    0.1020  -10.3110    6.0410 N   0  0  0  0  0  0  0  0  0  0  0  0
   -0.1600  -11.4780    5.4120 C   0  0  0  0  0  0  0  0  0  0  0  0
   -4.6189  -13.5212    0.7213 H   0  0  0  0  0  0  0  0  0  0  0  0
   -4.4573  -11.9149    1.4177 H   0  0  0  0  0  0  0  0  0  0  0  0
   -2.4612  -14.2334    1.3947 H   0  0  0  0  0  0  0  0  0  0  0  0
   -2.1432  -12.5145    1.0845 H   0  0  0  0  0  0  0  0  0  0  0  0
   -0.7412  -13.7101    4.2251 H   0  0  0  0  0  0  0  0  0  0  0  0
   -0.3619  -13.0042    2.6106 H   0  0  0  0  0  0  0  0  0  0  0  0
   -1.5326  -10.4024    2.5028 H   0  0  0  0  0  0  0  0  0  0  0  0
   -1.0696   -8.2090    3.6347 H   0  0  0  0  0  0  0  0  0  0  0  0
    0.1001  -12.4122    5.9313 H   0  0  0  0  0  0  0  0  0  0  0  0
  1  2  3  0
  2  3  1  0
  3  4  2  0
  4  5  1  0
  5  6  1  0
  6  7  1  0
  7  8  1  0
  8  9  1  0
  9 10  1  0
 10 11  2  0
 11 12  1  0
 12 13  2  0
 13 14  1  0
 13 15  1  0
 15 16  2  0
  8  4  1  0
 16 10  1  0
  6 17  1  0
  6 18  1  0
  7 19  1  0
  7 20  1  0
  9 21  1  0
  9 22  1  0
 11 23  1  0
 12 24  1  0
 16 25  1  0
M  END
>  <meeko>  (4) 
{"is_sidechain": [false], "free_energy": -5.747, "intermolecular_energy": -6.449, "internal_energy": -0.212}

$$$$
3wtj_ligand
     RDKit          3D

 25 26  0  0  0  0  0  0  0  0999 V2000
   -2.7190  -15.6990    2.6130 N   0  0  0  0  0  0  0  0  0  0  0  0
   -2.5340  -14.5760    2.8370 C   0  0  0  0  0  0  0  0  0  0  0  0
   -2.2780  -13.2890    3.0910 N   0  0  0  0  0  0  0  0  0  0  0  0
   -3.2420  -12.4980    3.4220 C   0  0  0  0  0  0  0  0  0  0  0  0
   -4.9430  -12.9620    3.5820 S   0  0  0  0  0  0  0  0  0  0  0  0
   -5.3810  -11.3960    4.3890 C   0  0  0  0  0  0  0  0  0  0  0  0
   -4.3420  -10.4100    3.8730 C   0  0  0  0  0  0  0  0  0  0  0  0
   -3.1020  -11.1580    3.7100 N   0  0  0  0  0  0  0  0  0  0  0  0
   -1.8650  -10.4260    3.5070 C   0  0  0  0  0  0  0  0  0  0  0  0
   -1.0550  -10.4070    4.7770 C   0  0  0  0  0  0  0  0  0  0  0  0
   -1.3540   -9.5240    5.8200 C   0  0  0  0  0  0  0  0  0  0  0  0
   -0.5780   -9.5330    6.9760 C   0  0  0  0  0  0  0  0  0  0  0  0
    0.4730  -10.4300    7.0430 C   0  0  0  0  0  0  0  0  0  0  0  0
    1.4810  -10.5050    8.4260 Cl  0  0  0  0  0  0  0  0  0  0  0  0
    0.7960  -11.3000    6.0640 N   0  0  0  0  0  0  0  0  0  0  0  0
    0.0230  -11.2690    4.9560 C   0  0  0  0  0  0  0  0  0  0  0  0
   -6.3952  -11.0798    4.1037 H   0  0  0  0  0  0  0  0  0  0  0  0
   -5.3828  -11.4722    5.4864 H   0  0  0  0  0  0  0  0  0  0  0  0
   -4.6625   -9.9917    2.9074 H   0  0  0  0  0  0  0  0  0  0  0  0
   -4.2099   -9.5712    4.5722 H   0  0  0  0  0  0  0  0  0  0  0  0
   -1.2815  -10.9127    2.7116 H   0  0  0  0  0  0  0  0  0  0  0  0
   -2.1041   -9.3916    3.2193 H   0  0  0  0  0  0  0  0  0  0  0  0
   -2.1987   -8.8255    5.7272 H   0  0  0  0  0  0  0  0  0  0  0  0
   -0.7938   -8.8485    7.8096 H   0  0  0  0  0  0  0  0  0  0  0  0
    0.2612  -11.9705    4.1429 H   0  0  0  0  0  0  0  0  0  0  0  0
  1  2  3  0
  2  3  1  0
  3  4  2  0
  4  5  1  0
  5  6  1  0
  6  7  1  0
  7  8  1  0
  8  9  1  0
  9 10  1  0
 10 11  2  0
 11 12  1  0
 12 13  2  0
 13 14  1  0
 13 15  1  0
 15 16  2  0
  8  4  1  0
 16 10  1  0
  6 17  1  0
  6 18  1  0
  7 19  1  0
  7 20  1  0
  9 21  1  0
  9 22  1  0
 11 23  1  0
 12 24  1  0
 16 25  1  0
M  END
>  <meeko>  (5) 
{"is_sidechain": [false], "free_energy": -5.662, "intermolecular_energy": -6.281, "internal_energy": -0.286}

$$$$
3wtj_ligand
     RDKit          3D

 25 26  0  0  0  0  0  0  0  0999 V2000
   -4.5960  -11.8980    4.1020 N   0  0  0  0  0  0  0  0  0  0  0  0
   -3.6370  -11.8950    4.7540 C   0  0  0  0  0  0  0  0  0  0  0  0
   -2.5420  -11.9320    5.5200 N   0  0  0  0  0  0  0  0  0  0  0  0
   -1.7800  -10.8930    5.5960 C   0  0  0  0  0  0  0  0  0  0  0  0
   -2.0470   -9.3580    4.7560 S   0  0  0  0  0  0  0  0  0  0  0  0
   -0.7770   -8.5060    5.7340 C   0  0  0  0  0  0  0  0  0  0  0  0
    0.1790   -9.6160    6.1470 C   0  0  0  0  0  0  0  0  0  0  0  0
   -0.6310  -10.8090    6.3520 N   0  0  0  0  0  0  0  0  0  0  0  0
   -0.0390  -11.9500    7.0270 C   0  0  0  0  0  0  0  0  0  0  0  0
    0.7740  -11.4930    8.2090 C   0  0  0  0  0  0  0  0  0  0  0  0
    2.1730  -11.5130    8.1850 C   0  0  0  0  0  0  0  0  0  0  0  0
    2.8890  -11.0880    9.3010 C   0  0  0  0  0  0  0  0  0  0  0  0
    2.1730  -10.6570   10.4040 C   0  0  0  0  0  0  0  0  0  0  0  0
    2.9750  -10.1210   11.8200 Cl  0  0  0  0  0  0  0  0  0  0  0  0
    0.8270  -10.6190   10.4700 N   0  0  0  0  0  0  0  0  0  0  0  0
    0.1610  -11.0360    9.3710 C   0  0  0  0  0  0  0  0  0  0  0  0
   -0.2583   -7.7496    5.1266 H   0  0  0  0  0  0  0  0  0  0  0  0
   -1.1979   -7.9683    6.5964 H   0  0  0  0  0  0  0  0  0  0  0  0
    0.9206   -9.7926    5.3540 H   0  0  0  0  0  0  0  0  0  0  0  0
    0.7271   -9.3470    7.0620 H   0  0  0  0  0  0  0  0  0  0  0  0
   -0.8383  -12.6214    7.3740 H   0  0  0  0  0  0  0  0  0  0  0  0
    0.6192  -12.4805    6.3232 H   0  0  0  0  0  0  0  0  0  0  0  0
    2.7049  -11.8631    7.2881 H   0  0  0  0  0  0  0  0  0  0  0  0
    3.9890  -11.0946    9.3057 H   0  0  0  0  0  0  0  0  0  0  0  0
   -0.9384  -11.0126    9.3968 H   0  0  0  0  0  0  0  0  0  0  0  0
  1  2  3  0
  2  3  1  0
  3  4  2  0
  4  5  1  0
  5  6  1  0
  6  7  1  0
  7  8  1  0
  8  9  1  0
  9 10  1  0
 10 11  2  0
 11 12  1  0
 12 13  2  0
 13 14  1  0
 13 15  1  0
 15 16  2  0
  8  4  1  0
 16 10  1  0
  6 17  1  0
  6 18  1  0
  7 19  1  0
  7 20  1  0
  9 21  1  0
  9 22  1  0
 11 23  1  0
 12 24  1  0
 16 25  1  0
M  END
>  <meeko>  (6) 
{"is_sidechain": [false], "free_energy": -5.456, "intermolecular_energy": -6.263, "internal_energy": -0.074}

$$$$
3wtj_ligand
     RDKit          3D

 25 26  0  0  0  0  0  0  0  0999 V2000
   -0.3050  -10.0630    8.6210 N   0  0  0  0  0  0  0  0  0  0  0  0
   -0.3540  -10.5930    7.5910 C   0  0  0  0  0  0  0  0  0  0  0  0
   -0.4100  -11.2420    6.4230 N   0  0  0  0  0  0  0  0  0  0  0  0
   -0.3770  -10.5750    5.3180 C   0  0  0  0  0  0  0  0  0  0  0  0
   -0.2600   -8.8140    5.1840 S   0  0  0  0  0  0  0  0  0  0  0  0
    0.0850   -8.8890    3.4030 C   0  0  0  0  0  0  0  0  0  0  0  0
   -0.5670  -10.1900    2.9540 C   0  0  0  0  0  0  0  0  0  0  0  0
   -0.4240  -11.1300    4.0580 N   0  0  0  0  0  0  0  0  0  0  0  0
   -0.6920  -12.5370    3.8190 C   0  0  0  0  0  0  0  0  0  0  0  0
   -2.0790  -12.7170    3.2610 C   0  0  0  0  0  0  0  0  0  0  0  0
   -3.2170  -12.4950    4.0460 C   0  0  0  0  0  0  0  0  0  0  0  0
   -4.4820  -12.6780    3.4960 C   0  0  0  0  0  0  0  0  0  0  0  0
   -4.5610  -13.0790    2.1740 C   0  0  0  0  0  0  0  0  0  0  0  0
   -6.0780  -13.3320    1.4190 Cl  0  0  0  0  0  0  0  0  0  0  0  0
   -3.4930  -13.3020    1.3810 N   0  0  0  0  0  0  0  0  0  0  0  0
   -2.2790  -13.1140    1.9420 C   0  0  0  0  0  0  0  0  0  0  0  0
   -0.3605   -8.0286    2.8822 H   0  0  0  0  0  0  0  0  0  0  0  0
    1.1615   -8.8566    3.1793 H   0  0  0  0  0  0  0  0  0  0  0  0
   -1.6316  -10.0242    2.7322 H   0  0  0  0  0  0  0  0  0  0  0  0
   -0.0927  -10.5766    2.0399 H   0  0  0  0  0  0  0  0  0  0  0  0
    0.0422  -12.9293    3.1000 H   0  0  0  0  0  0  0  0  0  0  0  0
   -0.6155  -13.0827    4.7710 H   0  0  0  0  0  0  0  0  0  0  0  0
   -3.1114  -12.1771    5.0937 H   0  0  0  0  0  0  0  0  0  0  0  0
   -5.3903  -12.5093    4.0931 H   0  0  0  0  0  0  0  0  0  0  0  0
   -1.3909  -13.2857    1.3161 H   0  0  0  0  0  0  0  0  0  0  0  0
  1  2  3  0
  2  3  1  0
  3  4  2  0
  4  5  1  0
  5  6  1  0
  6  7  1  0
  7  8  1  0
  8  9  1  0
  9 10  1  0
 10 11  2  0
 11 12  1  0
 12 13  2  0
 13 14  1  0
 13 15  1  0
 15 16  2  0
  8  4  1  0
 16 10  1  0
  6 17  1  0
  6 18  1  0
  7 19  1  0
  7 20  1  0
  9 21  1  0
  9 22  1  0
 11 23  1  0
 12 24  1  0
 16 25  1  0
M  END
>  <meeko>  (7) 
{"is_sidechain": [false], "free_energy": -5.394, "intermolecular_energy": -6.029, "internal_energy": -0.239}

$$$$
3wtj_ligand
     RDKit          3D

 25 26  0  0  0  0  0  0  0  0999 V2000
   -3.5580  -12.9610    0.4650 N   0  0  0  0  0  0  0  0  0  0  0  0
   -3.0220  -13.1550    1.4750 C   0  0  0  0  0  0  0  0  0  0  0  0
   -2.3660  -13.3740    2.6190 N   0  0  0  0  0  0  0  0  0  0  0  0
   -3.0270  -13.6560    3.6910 C   0  0  0  0  0  0  0  0  0  0  0  0
   -4.7880  -13.7890    3.8080 S   0  0  0  0  0  0  0  0  0  0  0  0
   -4.7050  -14.5350    5.4610 C   0  0  0  0  0  0  0  0  0  0  0  0
   -3.3960  -14.0150    6.0380 C   0  0  0  0  0  0  0  0  0  0  0  0
   -2.4640  -13.9050    4.9240 N   0  0  0  0  0  0  0  0  0  0  0  0
   -1.0530  -13.7100    5.2080 C   0  0  0  0  0  0  0  0  0  0  0  0
   -0.7620  -12.2500    5.4300 C   0  0  0  0  0  0  0  0  0  0  0  0
   -0.0300  -11.5010    4.5010 C   0  0  0  0  0  0  0  0  0  0  0  0
    0.2240  -10.1540    4.7460 C   0  0  0  0  0  0  0  0  0  0  0  0
   -0.2680   -9.6060    5.9170 C   0  0  0  0  0  0  0  0  0  0  0  0
    0.0010   -7.9570    6.2980 Cl  0  0  0  0  0  0  0  0  0  0  0  0
   -0.9800  -10.2870    6.8370 N   0  0  0  0  0  0  0  0  0  0  0  0
   -1.2110  -11.5910    6.5710 C   0  0  0  0  0  0  0  0  0  0  0  0
   -5.5580  -14.2145    6.0773 H   0  0  0  0  0  0  0  0  0  0  0  0
   -4.7459  -15.6338    5.4307 H   0  0  0  0  0  0  0  0  0  0  0  0
   -3.5507  -13.0297    6.5020 H   0  0  0  0  0  0  0  0  0  0  0  0
   -3.0083  -14.6915    6.8139 H   0  0  0  0  0  0  0  0  0  0  0  0
   -0.7833  -14.2754    6.1122 H   0  0  0  0  0  0  0  0  0  0  0  0
   -0.4628  -14.0663    4.3509 H   0  0  0  0  0  0  0  0  0  0  0  0
    0.3431  -11.9748    3.5810 H   0  0  0  0  0  0  0  0  0  0  0  0
    0.7974   -9.5453    4.0314 H   0  0  0  0  0  0  0  0  0  0  0  0
   -1.7919  -12.1701    7.3040 H   0  0  0  0  0  0  0  0  0  0  0  0
  1  2  3  0
  2  3  1  0
  3  4  2  0
  4  5  1  0
  5  6  1  0
  6  7  1  0
  7  8  1  0
  8  9  1  0
  9 10  1  0
 10 11  2  0
 11 12  1  0
 12 13  2  0
 13 14  1  0
 13 15  1  0
 15 16  2  0
  8  4  1  0
 16 10  1  0
  6 17  1  0
  6 18  1  0
  7 19  1  0
  7 20  1  0
  9 21  1  0
  9 22  1  0
 11 23  1  0
 12 24  1  0
 16 25  1  0
M  END
>  <meeko>  (8) 
{"is_sidechain": [false], "free_energy": -5.364, "intermolecular_energy": -6.202, "internal_energy": -0.032}

$$$$
3wtj_ligand
     RDKit          3D

 25 26  0  0  0  0  0  0  0  0999 V2000
   -1.0720  -12.0550    1.3780 N   0  0  0  0  0  0  0  0  0  0  0  0
   -0.9930  -11.8310    2.5130 C   0  0  0  0  0  0  0  0  0  0  0  0
   -0.8920  -11.5330    3.8120 N   0  0  0  0  0  0  0  0  0  0  0  0
   -1.0310  -12.4640    4.6950 C   0  0  0  0  0  0  0  0  0  0  0  0
   -1.3570  -14.1690    4.3490 S   0  0  0  0  0  0  0  0  0  0  0  0
   -1.0130  -14.6690    6.0590 C   0  0  0  0  0  0  0  0  0  0  0  0
   -1.3230  -13.4230    6.8790 C   0  0  0  0  0  0  0  0  0  0  0  0
   -0.9450  -12.2810    6.0580 N   0  0  0  0  0  0  0  0  0  0  0  0
   -0.8560  -10.9710    6.6800 C   0  0  0  0  0  0  0  0  0  0  0  0
    0.2060  -10.9720    7.7480 C   0  0  0  0  0  0  0  0  0  0  0  0
    1.5220  -11.3580    7.4700 C   0  0  0  0  0  0  0  0  0  0  0  0
    2.4730  -11.3520    8.4870 C   0  0  0  0  0  0  0  0  0  0  0  0
    2.0680  -10.9560    9.7490 C   0  0  0  0  0  0  0  0  0  0  0  0
    3.1730  -10.9230   11.0580 Cl  0  0  0  0  0  0  0  0  0  0  0  0
    0.8130  -10.5740   10.0610 N   0  0  0  0  0  0  0  0  0  0  0  0
   -0.0870  -10.5890    9.0530 C   0  0  0  0  0  0  0  0  0  0  0  0
   -1.6611  -15.5055    6.3593 H   0  0  0  0  0  0  0  0  0  0  0  0
    0.0205  -15.0193    6.1970 H   0  0  0  0  0  0  0  0  0  0  0  0
   -2.3964  -13.3817    7.1159 H   0  0  0  0  0  0  0  0  0  0  0  0
   -0.7723  -13.4271    7.8312 H   0  0  0  0  0  0  0  0  0  0  0  0
   -0.6012  -10.2225    5.9153 H   0  0  0  0  0  0  0  0  0  0  0  0
   -1.8252  -10.7254    7.1386 H   0  0  0  0  0  0  0  0  0  0  0  0
    1.8041  -11.6650    6.4521 H   0  0  0  0  0  0  0  0  0  0  0  0
    3.5132  -11.6526    8.2931 H   0  0  0  0  0  0  0  0  0  0  0  0
   -1.1178  -10.2783    9.2789 H   0  0  0  0  0  0  0  0  0  0  0  0
  1  2  3  0
  2  3  1  0
  3  4  2  0
  4  5  1  0
  5  6  1  0
  6  7  1  0
  7  8  1  0
  8  9  1  0
  9 10  1  0
 10 11  2  0
 11 12  1  0
 12 13  2  0
 13 14  1  0
 13 15  1  0
 15 16  2  0
  8  4  1  0
 16 10  1  0
  6 17  1  0
  6 18  1  0
  7 19  1  0
  7 20  1  0
  9 21  1  0
  9 22  1  0
 11 23  1  0
 12 24  1  0
 16 25  1  0
M  END
>  <meeko>  (9) 
{"is_sidechain": [false], "free_energy": -5.326, "intermolecular_energy": -5.933, "internal_energy": -0.259}

$$$$
