
     RDKit          3D

 20 22  0  0  0  0  0  0  0  0999 V2000
  -10.3050    7.3690   10.5910 C   0  0  0  0  0  0  0  0  0  0  0  0
   -9.3930    7.4030    9.0690 S   0  0  0  0  0  0  0  0  0  0  0  0
  -10.5850    7.9920    7.9360 C   0  0  0  0  0  0  0  0  0  0  0  0
  -11.1700    6.9100    7.0090 C   0  0  1  0  0  0  0  0  0  0  0  0
  -12.2490    7.4900    6.2770 O   0  0  0  0  0  0  0  0  0  0  0  0
  -11.7400    8.0370    5.0170 C   0  0  1  0  0  0  0  0  0  0  0  0
  -11.8570    9.5010    5.1940 N   0  0  0  0  0  0  0  0  0  0  0  0
  -13.0540   10.1060    5.4720 C   0  0  0  0  0  0  0  0  0  0  0  0
  -12.8530   11.4570    5.6200 C   0  0  0  0  0  0  0  0  0  0  0  0
  -11.4880   11.7120    5.3930 C   0  0  0  0  0  0  0  0  0  0  0  0
  -10.6610   12.8780    5.3950 C   0  0  0  0  0  0  0  0  0  0  0  0
  -11.1550   14.1160    5.6590 N   0  0  0  0  0  0  0  0  0  0  0  0
   -9.3460   12.7560    5.1420 N   0  0  0  0  0  0  0  0  0  0  0  0
   -8.8190   11.5410    4.8750 C   0  0  0  0  0  0  0  0  0  0  0  0
   -9.5360   10.4070    4.8660 N   0  0  0  0  0  0  0  0  0  0  0  0
  -10.8750   10.4710    5.1250 C   0  0  0  0  0  0  0  0  0  0  0  0
  -10.3700    7.4440    4.8130 C   0  0  2  0  0  0  0  0  0  0  0  0
  -10.2570    6.8560    3.5280 O   0  0  0  0  0  0  0  0  0  0  0  0
  -10.2390    6.4010    5.9400 C   0  0  2  0  0  0  0  0  0  0  0  0
  -10.6840    5.1200    5.5280 O   0  0  0  0  0  0  0  0  0  0  0  0
  2  1  1  0
  3  2  1  0
  4  3  1  1
  5  4  1  0
  6  5  1  0
  6  7  1  1
  8  7  1  0
  9  8  2  0
 10  9  1  0
 11 10  2  0
 12 11  1  0
 13 11  1  0
 14 13  2  0
 15 14  1  0
 16  7  1  0
 16 10  1  0
 16 15  2  0
 17  6  1  0
 17 18  1  6
 19  4  1  0
 19 17  1  0
 19 20  1  6
M  END
$$$$
