3gv9_ligand
     RDKit          3D

 18 18  0  0  0  0  0  0  0  0999 V2000
   -2.9370  -10.0610   11.9010 C   0  0  0  0  0  0  0  0  0  0  0  0
   -4.0270   -9.0470   11.6640 C   0  0  0  0  0  0  0  0  0  0  0  0
   -5.0920   -9.3810   11.1510 O   0  0  0  0  0  0  0  0  0  0  0  0
   -3.6570   -7.7840   12.0540 N   0  0  0  0  0  0  0  0  0  0  0  0
   -4.4140   -6.6230   11.9680 C   0  0  0  0  0  0  0  0  0  0  0  0
   -5.5400   -6.2470   12.7580 C   0  0  0  0  0  0  0  0  0  0  0  0
   -6.0490   -5.0190   12.3960 C   0  0  0  0  0  0  0  0  0  0  0  0
   -5.1720   -4.3160   11.1070 S   0  0  0  0  0  0  0  0  0  0  0  0
   -4.1130   -5.6510   11.0300 C   0  0  0  0  0  0  0  0  0  0  0  0
   -2.9090   -5.7750    9.9980 C   0  0  0  0  0  0  0  0  0  0  0  0
   -2.9530   -6.7960    9.2310 O   0  0  0  0  0  0  0  0  0  0  0  0
   -2.0170   -4.8760   10.0120 O   0  0  0  0  0  0  0  0  0  0  0  0
   -2.7913  -10.1966   12.9828 H   0  0  0  0  0  0  0  0  0  0  0  0
   -3.2239  -11.0208   11.4465 H   0  0  0  0  0  0  0  0  0  0  0  0
   -2.0004   -9.7056   11.4465 H   0  0  0  0  0  0  0  0  0  0  0  0
   -2.7220   -7.6190   12.4580 H   0  0  0  0  0  0  0  0  0  0  0  0
   -5.9555   -6.8676   13.5656 H   0  0  0  0  0  0  0  0  0  0  0  0
   -6.9170   -4.5465   12.8790 H   0  0  0  0  0  0  0  0  0  0  0  0
  1  2  1  0
  2  3  2  0
  2  4  1  0
  4  5  1  0
  5  6  1  0
  6  7  2  0
  7  8  1  0
  8  9  1  0
  9 10  1  0
 10 11  2  0
 10 12  1  0
  9  5  2  0
  1 13  1  0
  1 14  1  0
  1 15  1  0
  4 16  1  0
  6 17  1  0
  7 18  1  0
M  CHG  1  12  -1
M  END
>  <meeko>  (1) 
{"is_sidechain": [false], "free_energy": -5.101, "intermolecular_energy": -5.698, "internal_energy": -0.466}

$$$$
3gv9_ligand
     RDKit          3D

 18 18  0  0  0  0  0  0  0  0999 V2000
   -4.1180  -10.3190   11.0780 C   0  0  0  0  0  0  0  0  0  0  0  0
   -3.5830   -8.9240   11.2780 C   0  0  0  0  0  0  0  0  0  0  0  0
   -2.4680   -8.7430   11.7620 O   0  0  0  0  0  0  0  0  0  0  0  0
   -4.4820   -7.9610   10.8910 N   0  0  0  0  0  0  0  0  0  0  0  0
   -4.3140   -6.5840   10.9480 C   0  0  0  0  0  0  0  0  0  0  0  0
   -3.5220   -5.7580   10.0970 C   0  0  0  0  0  0  0  0  0  0  0  0
   -3.5900   -4.4270   10.4470 C   0  0  0  0  0  0  0  0  0  0  0  0
   -4.6050   -4.1680   11.7980 S   0  0  0  0  0  0  0  0  0  0  0  0
   -4.9560   -5.8340   11.9190 C   0  0  0  0  0  0  0  0  0  0  0  0
   -5.9130   -6.4650   13.0200 C   0  0  0  0  0  0  0  0  0  0  0  0
   -5.3380   -7.2250   13.8710 O   0  0  0  0  0  0  0  0  0  0  0  0
   -7.1460   -6.1770   12.9750 O   0  0  0  0  0  0  0  0  0  0  0  0
   -4.2974  -10.7868   12.0573 H   0  0  0  0  0  0  0  0  0  0  0  0
   -5.0621  -10.2725   10.5154 H   0  0  0  0  0  0  0  0  0  0  0  0
   -3.3849  -10.9157   10.5154 H   0  0  0  0  0  0  0  0  0  0  0  0
   -5.4030   -8.2330   10.5130 H   0  0  0  0  0  0  0  0  0  0  0  0
   -2.9244   -6.1402    9.2563 H   0  0  0  0  0  0  0  0  0  0  0  0
   -3.0538   -3.6248    9.9188 H   0  0  0  0  0  0  0  0  0  0  0  0
  1  2  1  0
  2  3  2  0
  2  4  1  0
  4  5  1  0
  5  6  1  0
  6  7  2  0
  7  8  1  0
  8  9  1  0
  9 10  1  0
 10 11  2  0
 10 12  1  0
  9  5  2  0
  1 13  1  0
  1 14  1  0
  1 15  1  0
  4 16  1  0
  6 17  1  0
  7 18  1  0
M  CHG  1  12  -1
M  END
>  <meeko>  (2) 
{"is_sidechain": [false], "free_energy": -5.098, "intermolecular_energy": -5.694, "internal_energy": -0.466}

$$$$
3gv9_ligand
     RDKit          3D

 18 18  0  0  0  0  0  0  0  0999 V2000
   -4.9960   -3.6370   11.9570 C   0  0  0  0  0  0  0  0  0  0  0  0
   -5.2420   -5.1240   11.9440 C   0  0  0  0  0  0  0  0  0  0  0  0
   -6.3850   -5.5710   12.0080 O   0  0  0  0  0  0  0  0  0  0  0  0
   -4.0750   -5.8450   11.8860 N   0  0  0  0  0  0  0  0  0  0  0  0
   -3.9410   -7.2260   11.8690 C   0  0  0  0  0  0  0  0  0  0  0  0
   -4.2630   -8.1540   12.9030 C   0  0  0  0  0  0  0  0  0  0  0  0
   -4.0000   -9.4570   12.5390 C   0  0  0  0  0  0  0  0  0  0  0  0
   -3.3660   -9.5660   10.9550 S   0  0  0  0  0  0  0  0  0  0  0  0
   -3.4420   -7.8740   10.7520 C   0  0  0  0  0  0  0  0  0  0  0  0
   -2.9910   -7.1140    9.4290 C   0  0  0  0  0  0  0  0  0  0  0  0
   -3.8800   -6.3620    8.9030 O   0  0  0  0  0  0  0  0  0  0  0  0
   -1.8130   -7.3050    9.0040 O   0  0  0  0  0  0  0  0  0  0  0  0
   -4.9376   -3.2841   12.9972 H   0  0  0  0  0  0  0  0  0  0  0  0
   -4.0493   -3.4174   11.4416 H   0  0  0  0  0  0  0  0  0  0  0  0
   -5.8215   -3.1243   11.4416 H   0  0  0  0  0  0  0  0  0  0  0  0
   -3.1650   -5.3570   11.8550 H   0  0  0  0  0  0  0  0  0  0  0  0
   -4.6747   -7.8627   13.8806 H   0  0  0  0  0  0  0  0  0  0  0  0
   -4.1772  -10.3250   13.1911 H   0  0  0  0  0  0  0  0  0  0  0  0
  1  2  1  0
  2  3  2  0
  2  4  1  0
  4  5  1  0
  5  6  1  0
  6  7  2  0
  7  8  1  0
  8  9  1  0
  9 10  1  0
 10 11  2  0
 10 12  1  0
  9  5  2  0
  1 13  1  0
  1 14  1  0
  1 15  1  0
  4 16  1  0
  6 17  1  0
  7 18  1  0
M  CHG  1  12  -1
M  END
>  <meeko>  (3) 
{"is_sidechain": [false], "free_energy": -5.088, "intermolecular_energy": -5.704, "internal_energy": -0.445}

$$$$
3gv9_ligand
     RDKit          3D

 18 18  0  0  0  0  0  0  0  0999 V2000
   -7.2680   -7.0270   15.5790 C   0  0  0  0  0  0  0  0  0  0  0  0
   -7.1290   -6.5900   14.1430 C   0  0  0  0  0  0  0  0  0  0  0  0
   -8.0910   -6.6330   13.3800 O   0  0  0  0  0  0  0  0  0  0  0  0
   -5.8500   -6.1970   13.8390 N   0  0  0  0  0  0  0  0  0  0  0  0
   -5.3780   -5.7480   12.6130 C   0  0  0  0  0  0  0  0  0  0  0  0
   -5.5920   -4.4780   12.0000 C   0  0  0  0  0  0  0  0  0  0  0  0
   -4.9710   -4.3770   10.7740 C   0  0  0  0  0  0  0  0  0  0  0  0
   -4.1290   -5.8070   10.3600 S   0  0  0  0  0  0  0  0  0  0  0  0
   -4.5930   -6.5640   11.8160 C   0  0  0  0  0  0  0  0  0  0  0  0
   -4.1770   -8.0440   12.2230 C   0  0  0  0  0  0  0  0  0  0  0  0
   -2.9210   -8.2800   12.2070 O   0  0  0  0  0  0  0  0  0  0  0  0
   -5.0970   -8.8600   12.5250 O   0  0  0  0  0  0  0  0  0  0  0  0
   -7.0024   -6.1918   16.2438 H   0  0  0  0  0  0  0  0  0  0  0  0
   -8.3074   -7.3318   15.7705 H   0  0  0  0  0  0  0  0  0  0  0  0
   -6.5956   -7.8763   15.7705 H   0  0  0  0  0  0  0  0  0  0  0  0
   -5.1140   -6.2220   14.5630 H   0  0  0  0  0  0  0  0  0  0  0  0
   -6.1854   -3.6708   12.4543 H   0  0  0  0  0  0  0  0  0  0  0  0
   -5.0120   -3.4816   10.1363 H   0  0  0  0  0  0  0  0  0  0  0  0
  1  2  1  0
  2  3  2  0
  2  4  1  0
  4  5  1  0
  5  6  1  0
  6  7  2  0
  7  8  1  0
  8  9  1  0
  9 10  1  0
 10 11  2  0
 10 12  1  0
  9  5  2  0
  1 13  1  0
  1 14  1  0
  1 15  1  0
  4 16  1  0
  6 17  1  0
  7 18  1  0
M  CHG  1  12  -1
M  END
>  <meeko>  (4) 
{"is_sidechain": [false], "free_energy": -5.021, "intermolecular_energy": -5.611, "internal_energy": -0.464}

$$$$
3gv9_ligand
     RDKit          3D

 18 18  0  0  0  0  0  0  0  0999 V2000
   -7.2550   -6.6630   14.7950 C   0  0  0  0  0  0  0  0  0  0  0  0
   -5.9990   -6.9940   14.0300 C   0  0  0  0  0  0  0  0  0  0  0  0
   -5.0680   -7.5780   14.5780 O   0  0  0  0  0  0  0  0  0  0  0  0
   -6.0460   -6.5470   12.7330 N   0  0  0  0  0  0  0  0  0  0  0  0
   -5.0600   -6.6760   11.7640 C   0  0  0  0  0  0  0  0  0  0  0  0
   -4.6120   -7.8660   11.1190 C   0  0  0  0  0  0  0  0  0  0  0  0
   -3.6110   -7.6210   10.2030 C   0  0  0  0  0  0  0  0  0  0  0  0
   -3.2110   -5.9610   10.1170 S   0  0  0  0  0  0  0  0  0  0  0  0
   -4.3730   -5.5660   11.3030 C   0  0  0  0  0  0  0  0  0  0  0  0
   -4.6430   -4.0900   11.8290 C   0  0  0  0  0  0  0  0  0  0  0  0
   -3.6430   -3.2980   11.7660 O   0  0  0  0  0  0  0  0  0  0  0  0
   -5.8010   -3.8140   12.2620 O   0  0  0  0  0  0  0  0  0  0  0  0
   -7.0516   -6.7166   15.8747 H   0  0  0  0  0  0  0  0  0  0  0  0
   -7.5861   -5.6469   14.5343 H   0  0  0  0  0  0  0  0  0  0  0  0
   -8.0439   -7.3839   14.5343 H   0  0  0  0  0  0  0  0  0  0  0  0
   -6.8810   -6.0480   12.3860 H   0  0  0  0  0  0  0  0  0  0  0  0
   -5.0189   -8.8663   11.3284 H   0  0  0  0  0  0  0  0  0  0  0  0
   -3.1266   -8.4020    9.5985 H   0  0  0  0  0  0  0  0  0  0  0  0
  1  2  1  0
  2  3  2  0
  2  4  1  0
  4  5  1  0
  5  6  1  0
  6  7  2  0
  7  8  1  0
  8  9  1  0
  9 10  1  0
 10 11  2  0
 10 12  1  0
  9  5  2  0
  1 13  1  0
  1 14  1  0
  1 15  1  0
  4 16  1  0
  6 17  1  0
  7 18  1  0
M  CHG  1  12  -1
M  END
>  <meeko>  (5) 
{"is_sidechain": [false], "free_energy": -4.956, "intermolecular_energy": -5.616, "internal_energy": -0.386}

$$$$
3gv9_ligand
     RDKit          3D

 18 18  0  0  0  0  0  0  0  0999 V2000
   -2.0870   -5.3070    9.9040 C   0  0  0  0  0  0  0  0  0  0  0  0
   -3.5290   -5.5590   10.2620 C   0  0  0  0  0  0  0  0  0  0  0  0
   -4.4350   -5.1420    9.5450 O   0  0  0  0  0  0  0  0  0  0  0  0
   -3.6600   -6.2500   11.4410 N   0  0  0  0  0  0  0  0  0  0  0  0
   -4.8400   -6.6370   12.0610 C   0  0  0  0  0  0  0  0  0  0  0  0
   -5.8530   -5.8040   12.6220 C   0  0  0  0  0  0  0  0  0  0  0  0
   -6.8930   -6.5320   13.1580 C   0  0  0  0  0  0  0  0  0  0  0  0
   -6.6540   -8.2170   12.9860 S   0  0  0  0  0  0  0  0  0  0  0  0
   -5.1610   -7.9770   12.1960 C   0  0  0  0  0  0  0  0  0  0  0  0
   -4.2320   -9.1560   11.6700 C   0  0  0  0  0  0  0  0  0  0  0  0
   -3.9150   -9.0890   10.4340 O   0  0  0  0  0  0  0  0  0  0  0  0
   -3.8840  -10.0530   12.4940 O   0  0  0  0  0  0  0  0  0  0  0  0
   -1.4935   -5.2033   10.8243 H   0  0  0  0  0  0  0  0  0  0  0  0
   -1.7029   -6.1516    9.3132 H   0  0  0  0  0  0  0  0  0  0  0  0
   -2.0121   -4.3822    9.3132 H   0  0  0  0  0  0  0  0  0  0  0  0
   -2.8210   -6.5350   11.9710 H   0  0  0  0  0  0  0  0  0  0  0  0
   -5.8090   -4.7049   12.6263 H   0  0  0  0  0  0  0  0  0  0  0  0
   -7.7736   -6.0823   13.6400 H   0  0  0  0  0  0  0  0  0  0  0  0
  1  2  1  0
  2  3  2  0
  2  4  1  0
  4  5  1  0
  5  6  1  0
  6  7  2  0
  7  8  1  0
  8  9  1  0
  9 10  1  0
 10 11  2  0
 10 12  1  0
  9  5  2  0
  1 13  1  0
  1 14  1  0
  1 15  1  0
  4 16  1  0
  6 17  1  0
  7 18  1  0
M  CHG  1  12  -1
M  END
>  <meeko>  (6) 
{"is_sidechain": [false], "free_energy": -4.865, "intermolecular_energy": -5.459, "internal_energy": -0.441}

$$$$
3gv9_ligand
     RDKit          3D

 18 18  0  0  0  0  0  0  0  0999 V2000
    0.1260   -4.2180    8.8200 C   0  0  0  0  0  0  0  0  0  0  0  0
   -1.0780   -3.7240    9.5810 C   0  0  0  0  0  0  0  0  0  0  0  0
   -1.2120   -2.5290    9.8350 O   0  0  0  0  0  0  0  0  0  0  0  0
   -1.9200   -4.7460    9.9440 N   0  0  0  0  0  0  0  0  0  0  0  0
   -3.1060   -4.6430   10.6570 C   0  0  0  0  0  0  0  0  0  0  0  0
   -3.5940   -3.5250   11.3960 C   0  0  0  0  0  0  0  0  0  0  0  0
   -4.8160   -3.7770   11.9820 C   0  0  0  0  0  0  0  0  0  0  0  0
   -5.3780   -5.3550   11.6430 S   0  0  0  0  0  0  0  0  0  0  0  0
   -3.9910   -5.7070   10.7140 C   0  0  0  0  0  0  0  0  0  0  0  0
   -3.7320   -7.0990    9.9900 C   0  0  0  0  0  0  0  0  0  0  0  0
   -4.1710   -8.1260   10.6110 O   0  0  0  0  0  0  0  0  0  0  0  0
   -3.1240   -7.0880    8.8790 O   0  0  0  0  0  0  0  0  0  0  0  0
    0.9032   -4.5369    9.5302 H   0  0  0  0  0  0  0  0  0  0  0  0
   -0.1643   -5.0697    8.1873 H   0  0  0  0  0  0  0  0  0  0  0  0
    0.5176   -3.4079    8.1873 H   0  0  0  0  0  0  0  0  0  0  0  0
   -1.6920   -5.7200    9.6890 H   0  0  0  0  0  0  0  0  0  0  0  0
   -3.0562   -2.5699   11.4879 H   0  0  0  0  0  0  0  0  0  0  0  0
   -5.3651   -3.0479   12.5959 H   0  0  0  0  0  0  0  0  0  0  0  0
  1  2  1  0
  2  3  2  0
  2  4  1  0
  4  5  1  0
  5  6  1  0
  6  7  2  0
  7  8  1  0
  8  9  1  0
  9 10  1  0
 10 11  2  0
 10 12  1  0
  9  5  2  0
  1 13  1  0
  1 14  1  0
  1 15  1  0
  4 16  1  0
  6 17  1  0
  7 18  1  0
M  CHG  1  12  -1
M  END
>  <meeko>  (7) 
{"is_sidechain": [false], "free_energy": -4.842, "intermolecular_energy": -5.806, "internal_energy": -0.068}

$$$$
3gv9_ligand
     RDKit          3D

 18 18  0  0  0  0  0  0  0  0999 V2000
   -3.1020   -4.4440   10.3460 C   0  0  0  0  0  0  0  0  0  0  0  0
   -3.5250   -5.8900   10.3000 C   0  0  0  0  0  0  0  0  0  0  0  0
   -4.0210   -6.3660    9.2820 O   0  0  0  0  0  0  0  0  0  0  0  0
   -3.3120   -6.5340   11.4940 N   0  0  0  0  0  0  0  0  0  0  0  0
   -3.5950   -7.8590   11.7960 C   0  0  0  0  0  0  0  0  0  0  0  0
   -2.9530   -9.0310   11.2970 C   0  0  0  0  0  0  0  0  0  0  0  0
   -3.4960  -10.1870   11.8150 C   0  0  0  0  0  0  0  0  0  0  0  0
   -4.7770   -9.8650   12.9010 S   0  0  0  0  0  0  0  0  0  0  0  0
   -4.6090   -8.1810   12.6810 C   0  0  0  0  0  0  0  0  0  0  0  0
   -5.5130   -7.0930   13.4080 C   0  0  0  0  0  0  0  0  0  0  0  0
   -5.5830   -7.2040   14.6790 O   0  0  0  0  0  0  0  0  0  0  0  0
   -6.0840   -6.2180   12.6920 O   0  0  0  0  0  0  0  0  0  0  0  0
   -3.0080   -4.1226   11.3938 H   0  0  0  0  0  0  0  0  0  0  0  0
   -2.1326   -4.3292    9.8389 H   0  0  0  0  0  0  0  0  0  0  0  0
   -3.8567   -3.8249    9.8389 H   0  0  0  0  0  0  0  0  0  0  0  0
   -2.9030   -6.0230   12.2930 H   0  0  0  0  0  0  0  0  0  0  0  0
   -2.1190   -9.0141   10.5800 H   0  0  0  0  0  0  0  0  0  0  0  0
   -3.1463  -11.1982   11.5597 H   0  0  0  0  0  0  0  0  0  0  0  0
  1  2  1  0
  2  3  2  0
  2  4  1  0
  4  5  1  0
  5  6  1  0
  6  7  2  0
  7  8  1  0
  8  9  1  0
  9 10  1  0
 10 11  2  0
 10 12  1  0
  9  5  2  0
  1 13  1  0
  1 14  1  0
  1 15  1  0
  4 16  1  0
  6 17  1  0
  7 18  1  0
M  CHG  1  12  -1
M  END
>  <meeko>  (8) 
{"is_sidechain": [false], "free_energy": -4.79, "intermolecular_energy": -5.359, "internal_energy": -0.457}

$$$$
3gv9_ligand
     RDKit          3D

 18 18  0  0  0  0  0  0  0  0999 V2000
   -2.1010   -7.2850    9.2790 C   0  0  0  0  0  0  0  0  0  0  0  0
   -2.8070   -7.6280   10.5660 C   0  0  0  0  0  0  0  0  0  0  0  0
   -2.2670   -8.3460   11.4040 O   0  0  0  0  0  0  0  0  0  0  0  0
   -4.0630   -7.0780   10.6340 N   0  0  0  0  0  0  0  0  0  0  0  0
   -4.9790   -7.2030   11.6700 C   0  0  0  0  0  0  0  0  0  0  0  0
   -5.5670   -8.3960   12.1850 C   0  0  0  0  0  0  0  0  0  0  0  0
   -6.4400   -8.1450   13.2210 C   0  0  0  0  0  0  0  0  0  0  0  0
   -6.5540   -6.4770   13.5760 S   0  0  0  0  0  0  0  0  0  0  0  0
   -5.4380   -6.0860   12.3460 C   0  0  0  0  0  0  0  0  0  0  0  0
   -4.9690   -4.6050   12.0060 C   0  0  0  0  0  0  0  0  0  0  0  0
   -5.8280   -3.6910   12.2520 O   0  0  0  0  0  0  0  0  0  0  0  0
   -3.8080   -4.4420   11.5260 O   0  0  0  0  0  0  0  0  0  0  0  0
   -1.1329   -6.8147    9.5060 H   0  0  0  0  0  0  0  0  0  0  0  0
   -1.9350   -8.2029    8.6960 H   0  0  0  0  0  0  0  0  0  0  0  0
   -2.7200   -6.5872    8.6960 H   0  0  0  0  0  0  0  0  0  0  0  0
   -4.4210   -6.5030    9.8550 H   0  0  0  0  0  0  0  0  0  0  0  0
   -5.3483   -9.4025   11.7988 H   0  0  0  0  0  0  0  0  0  0  0  0
   -6.9983   -8.9267   13.7569 H   0  0  0  0  0  0  0  0  0  0  0  0
  1  2  1  0
  2  3  2  0
  2  4  1  0
  4  5  1  0
  5  6  1  0
  6  7  2  0
  7  8  1  0
  8  9  1  0
  9 10  1  0
 10 11  2  0
 10 12  1  0
  9  5  2  0
  1 13  1  0
  1 14  1  0
  1 15  1  0
  4 16  1  0
  6 17  1  0
  7 18  1  0
M  CHG  1  12  -1
M  END
>  <meeko>  (9) 
{"is_sidechain": [false], "free_energy": -4.704, "intermolecular_energy": -5.371, "internal_energy": -0.349}

$$$$
