4rfm_ligand
     RDKit          3D

 63 68  0  0  0  0  0  0  0  0999 V2000
   -2.5280   -8.4640    9.6560 C   0  0  0  0  0  0  0  0  0  0  0  0
   -1.8190   -8.0450    8.3990 C   0  0  1  0  0  0  0  0  0  0  0  0
   -0.5790   -7.1910    8.6230 C   0  0  0  0  0  0  0  0  0  0  0  0
    0.5340   -7.4540    7.6620 C   0  0  0  0  0  0  0  0  0  0  0  0
    1.7330   -6.8910    7.8010 N   0  0  0  0  0  0  0  0  0  0  0  0
    2.4390   -7.4010    6.7800 N   0  0  0  0  0  0  0  0  0  0  0  0
    1.7330   -8.2580    5.9690 C   0  0  0  0  0  0  0  0  0  0  0  0
    2.3920   -8.8680    4.8360 C   0  0  0  0  0  0  0  0  0  0  0  0
    1.7590   -9.5900    4.0690 O   0  0  0  0  0  0  0  0  0  0  0  0
    3.7390   -8.5970    4.7220 N   0  0  0  0  0  0  0  0  0  0  0  0
    4.5640   -9.0380    3.7020 C   0  0  0  0  0  0  0  0  0  0  0  0
    5.2060  -10.2920    3.6140 C   0  0  0  0  0  0  0  0  0  0  0  0
    5.9360  -10.4180    2.5050 N   0  0  0  0  0  0  0  0  0  0  0  0
    5.7840   -9.2310    1.8780 N   0  0  0  0  0  0  0  0  0  0  0  0
    6.4400   -9.0120    0.5690 C   0  0  2  0  0  0  0  0  0  0  0  0
    5.4920   -9.3540   -0.5810 C   0  0  0  0  0  0  0  0  0  0  0  0
    5.7740   -8.8710   -1.8700 C   0  0  0  0  0  0  0  0  0  0  0  0
    4.9470   -9.1720   -2.9550 C   0  0  0  0  0  0  0  0  0  0  0  0
    3.8130   -9.9560   -2.7700 C   0  0  0  0  0  0  0  0  0  0  0  0
    3.5060  -10.4360   -1.5000 C   0  0  0  0  0  0  0  0  0  0  0  0
    4.3360  -10.1360   -0.4150 C   0  0  0  0  0  0  0  0  0  0  0  0
    7.8590   -9.6350    0.5310 C   0  0  1  0  0  0  0  0  0  0  0  0
    8.5410   -9.8210   -0.8380 C   0  0  0  0  0  0  0  0  0  0  0  0
    9.4260   -8.6560   -1.2730 C   0  0  0  0  0  0  0  0  0  0  0  0
   10.6650   -8.4630   -0.3910 C   0  0  0  0  0  0  0  0  0  0  0  0
   10.5480   -9.0560    1.0040 C   0  0  0  0  0  0  0  0  0  0  0  0
    8.9360   -8.7900    1.7000 S   0  0  0  0  0  0  0  0  0  0  0  0
    8.6860   -7.3640    1.6650 O   0  0  0  0  0  0  0  0  0  0  0  0
    8.8820   -9.5150    2.9550 O   0  0  0  0  0  0  0  0  0  0  0  0
    4.9510   -8.3820    2.5600 C   0  0  0  0  0  0  0  0  0  0  0  0
    0.4700   -8.3240    6.5420 C   0  0  0  0  0  0  0  0  0  0  0  0
   -0.7510   -9.1070    6.1980 C   0  0  0  0  0  0  0  0  0  0  0  0
   -1.8850   -8.9810    7.1780 C   0  0  2  0  0  0  0  0  0  0  0  0
   -2.6630   -7.7150    7.2150 C   0  0  0  0  0  0  0  0  0  0  0  0
   -4.0360   -7.7660    7.2880 F   0  0  0  0  0  0  0  0  0  0  0  0
   -2.3420   -6.6770    6.3720 F   0  0  0  0  0  0  0  0  0  0  0  0
   -1.9542   -8.1249   10.5311 H   0  0  0  0  0  0  0  0  0  0  0  0
   -3.5314   -8.0137    9.6785 H   0  0  0  0  0  0  0  0  0  0  0  0
   -2.6175   -9.5601    9.6785 H   0  0  0  0  0  0  0  0  0  0  0  0
   -0.8687   -6.1337    8.5327 H   0  0  0  0  0  0  0  0  0  0  0  0
   -0.1977   -7.4477    9.6224 H   0  0  0  0  0  0  0  0  0  0  0  0
    3.4120   -7.1330    6.6730 H   0  0  0  0  0  0  0  0  0  0  0  0
    4.1940   -8.0820    5.4590 H   0  0  0  0  0  0  0  0  0  0  0  0
    5.1142  -11.0793    4.3768 H   0  0  0  0  0  0  0  0  0  0  0  0
    6.6444   -7.9415    0.4201 H   0  0  0  0  0  0  0  0  0  0  0  0
    6.6635   -8.2435   -2.0279 H   0  0  0  0  0  0  0  0  0  0  0  0
    5.1928   -8.7887   -3.9563 H   0  0  0  0  0  0  0  0  0  0  0  0
    3.1617  -10.1956   -3.6235 H   0  0  0  0  0  0  0  0  0  0  0  0
    2.6080  -11.0531   -1.3493 H   0  0  0  0  0  0  0  0  0  0  0  0
    4.0800  -10.5182    0.5842 H   0  0  0  0  0  0  0  0  0  0  0  0
    7.6843  -10.6792    0.8296 H   0  0  0  0  0  0  0  0  0  0  0  0
    9.1647  -10.7258   -0.7900 H   0  0  0  0  0  0  0  0  0  0  0  0
    7.7328   -9.8915   -1.5808 H   0  0  0  0  0  0  0  0  0  0  0  0
    9.7592   -8.8391   -2.3052 H   0  0  0  0  0  0  0  0  0  0  0  0
    8.8215   -7.7413   -1.1842 H   0  0  0  0  0  0  0  0  0  0  0  0
   11.5212   -8.9360   -0.8941 H   0  0  0  0  0  0  0  0  0  0  0  0
   10.7875   -7.3778   -0.2590 H   0  0  0  0  0  0  0  0  0  0  0  0
   10.7376  -10.1381    0.9481 H   0  0  0  0  0  0  0  0  0  0  0  0
   11.2860   -8.5584    1.6503 H   0  0  0  0  0  0  0  0  0  0  0  0
    4.6506   -7.3698    2.2514 H   0  0  0  0  0  0  0  0  0  0  0  0
   -1.1096   -8.7656    5.2157 H   0  0  0  0  0  0  0  0  0  0  0  0
   -0.4507  -10.1652    6.2103 H   0  0  0  0  0  0  0  0  0  0  0  0
   -2.0979  -10.0524    7.0485 H   0  0  0  0  0  0  0  0  0  0  0  0
  2  1  1  1
  2  3  1  0
  3  4  1  0
  4  5  2  0
  5  6  1  0
  6  7  1  0
  7  8  1  0
  8  9  2  0
  8 10  1  0
 10 11  1  0
 11 12  1  0
 12 13  2  0
 13 14  1  0
 14 15  1  0
 15 16  1  0
 16 17  2  0
 17 18  1  0
 18 19  2  0
 19 20  1  0
 20 21  2  0
 15 22  1  0
 22 23  1  0
 23 24  1  0
 24 25  1  0
 25 26  1  0
 26 27  1  0
 27 28  2  0
 27 29  2  0
 14 30  1  0
  7 31  2  0
 31 32  1  0
 32 33  1  0
 33 34  1  0
 34 35  1  0
 34 36  1  0
 33  2  1  0
 34  2  1  0
 31  4  1  0
 30 11  2  0
 21 16  1  0
 27 22  1  0
  1 37  1  0
  1 38  1  0
  1 39  1  0
  3 40  1  0
  3 41  1  0
  6 42  1  0
 10 43  1  0
 12 44  1  0
 15 45  1  6
 17 46  1  0
 18 47  1  0
 19 48  1  0
 20 49  1  0
 21 50  1  0
 22 51  1  1
 23 52  1  0
 23 53  1  0
 24 54  1  0
 24 55  1  0
 25 56  1  0
 25 57  1  0
 26 58  1  0
 26 59  1  0
 30 60  1  0
 32 61  1  0
 32 62  1  0
 33 63  1  1
M  END
>  <meeko>  (1) 
{"is_sidechain": [false], "free_energy": -9.985, "intermolecular_energy": -12.904, "internal_energy": -0.633}

$$$$
4rfm_ligand
     RDKit          3D

 63 68  0  0  0  0  0  0  0  0999 V2000
    4.2940   -8.7250   -3.6560 C   0  0  0  0  0  0  0  0  0  0  0  0
    5.2290   -9.5010   -2.7720 C   0  0  1  0  0  0  0  0  0  0  0  0
    6.6860   -9.4760   -3.2110 C   0  0  0  0  0  0  0  0  0  0  0  0
    7.6680   -9.4430   -2.0850 C   0  0  0  0  0  0  0  0  0  0  0  0
    8.9750   -9.2840   -2.2950 N   0  0  0  0  0  0  0  0  0  0  0  0
    9.4910   -9.2740   -1.0570 N   0  0  0  0  0  0  0  0  0  0  0  0
    8.5690   -9.4450   -0.0510 C   0  0  0  0  0  0  0  0  0  0  0  0
    9.0120   -9.4510    1.3260 C   0  0  0  0  0  0  0  0  0  0  0  0
    8.8130  -10.4360    2.0330 O   0  0  0  0  0  0  0  0  0  0  0  0
    9.6250   -8.2920    1.7530 N   0  0  0  0  0  0  0  0  0  0  0  0
   10.1610   -8.0840    3.0110 C   0  0  0  0  0  0  0  0  0  0  0  0
    9.4530   -7.7900    4.1960 C   0  0  0  0  0  0  0  0  0  0  0  0
   10.2550   -7.6440    5.2510 N   0  0  0  0  0  0  0  0  0  0  0  0
   11.4950   -7.8240    4.7450 N   0  0  0  0  0  0  0  0  0  0  0  0
   12.6650   -7.7640    5.6510 C   0  0  2  0  0  0  0  0  0  0  0  0
   12.7740   -9.0410    6.4860 C   0  0  0  0  0  0  0  0  0  0  0  0
   13.8960   -9.8720    6.3240 C   0  0  0  0  0  0  0  0  0  0  0  0
   14.0480  -11.0380    7.0770 C   0  0  0  0  0  0  0  0  0  0  0  0
   13.0760  -11.4030    8.0020 C   0  0  0  0  0  0  0  0  0  0  0  0
   11.9510  -10.6030    8.1710 C   0  0  0  0  0  0  0  0  0  0  0  0
   11.7990   -9.4330    7.4190 C   0  0  0  0  0  0  0  0  0  0  0  0
   12.7330   -6.4120    6.4050 C   0  0  1  0  0  0  0  0  0  0  0  0
   13.5100   -6.3530    7.7350 C   0  0  0  0  0  0  0  0  0  0  0  0
   14.9750   -5.9470    7.5990 C   0  0  0  0  0  0  0  0  0  0  0  0
   15.1700   -4.5040    7.1200 C   0  0  0  0  0  0  0  0  0  0  0  0
   13.9820   -3.9160    6.3750 C   0  0  0  0  0  0  0  0  0  0  0  0
   13.2400   -5.1010    5.2800 S   0  0  0  0  0  0  0  0  0  0  0  0
   14.2850   -5.5800    4.3990 O   0  0  0  0  0  0  0  0  0  0  0  0
   12.0400   -4.4960    4.7370 O   0  0  0  0  0  0  0  0  0  0  0  0
   11.4760   -8.1080    3.4040 C   0  0  0  0  0  0  0  0  0  0  0  0
    7.3490   -9.5430   -0.7060 C   0  0  0  0  0  0  0  0  0  0  0  0
    5.9500   -9.6820   -0.2100 C   0  0  0  0  0  0  0  0  0  0  0  0
    4.8880   -9.6170   -1.2740 C   0  0  2  0  0  0  0  0  0  0  0  0
    4.7190  -10.7750   -2.1900 C   0  0  0  0  0  0  0  0  0  0  0  0
    3.4530  -11.2300   -2.4800 F   0  0  0  0  0  0  0  0  0  0  0  0
    5.5260  -11.8820   -2.0670 F   0  0  0  0  0  0  0  0  0  0  0  0
    3.5964   -8.1460   -3.0331 H   0  0  0  0  0  0  0  0  0  0  0  0
    4.8742   -8.0393   -4.2910 H   0  0  0  0  0  0  0  0  0  0  0  0
    3.7270   -9.4216   -4.2910 H   0  0  0  0  0  0  0  0  0  0  0  0
    6.8803  -10.3772   -3.8110 H   0  0  0  0  0  0  0  0  0  0  0  0
    6.8274   -8.5448   -3.7792 H   0  0  0  0  0  0  0  0  0  0  0  0
   10.4920   -9.1460   -0.9430 H   0  0  0  0  0  0  0  0  0  0  0  0
    9.6470   -7.4990    1.1330 H   0  0  0  0  0  0  0  0  0  0  0  0
    8.3584   -7.6920    4.2439 H   0  0  0  0  0  0  0  0  0  0  0  0
   13.5985   -7.7601    5.0691 H   0  0  0  0  0  0  0  0  0  0  0  0
   14.6687   -9.5987    5.5904 H   0  0  0  0  0  0  0  0  0  0  0  0
   14.9383  -11.6690    6.9382 H   0  0  0  0  0  0  0  0  0  0  0  0
   13.1963  -12.3202    8.5973 H   0  0  0  0  0  0  0  0  0  0  0  0
   11.1779  -10.8912    8.8985 H   0  0  0  0  0  0  0  0  0  0  0  0
   10.9030   -8.8107    7.5602 H   0  0  0  0  0  0  0  0  0  0  0  0
   11.6995   -6.2642    6.7514 H   0  0  0  0  0  0  0  0  0  0  0  0
   13.0117   -5.6242    8.3911 H   0  0  0  0  0  0  0  0  0  0  0  0
   13.5068   -7.3746    8.1428 H   0  0  0  0  0  0  0  0  0  0  0  0
   15.4586   -6.0558    8.5810 H   0  0  0  0  0  0  0  0  0  0  0  0
   15.4221   -6.6029    6.8375 H   0  0  0  0  0  0  0  0  0  0  0  0
   15.3682   -3.8746    8.0001 H   0  0  0  0  0  0  0  0  0  0  0  0
   16.0060   -4.5241    6.4053 H   0  0  0  0  0  0  0  0  0  0  0  0
   13.2296   -3.5873    7.1070 H   0  0  0  0  0  0  0  0  0  0  0  0
   14.3412   -3.0697    5.7711 H   0  0  0  0  0  0  0  0  0  0  0  0
   12.3473   -8.3153    2.7654 H   0  0  0  0  0  0  0  0  0  0  0  0
    5.8636  -10.6531    0.2993 H   0  0  0  0  0  0  0  0  0  0  0  0
    5.7727   -8.8230    0.4538 H   0  0  0  0  0  0  0  0  0  0  0  0
    4.2548   -9.0354   -0.5878 H   0  0  0  0  0  0  0  0  0  0  0  0
  2  1  1  6
  2  3  1  0
  3  4  1  0
  4  5  2  0
  5  6  1  0
  6  7  1  0
  7  8  1  0
  8  9  2  0
  8 10  1  0
 10 11  1  0
 11 12  1  0
 12 13  2  0
 13 14  1  0
 14 15  1  0
 15 16  1  0
 16 17  2  0
 17 18  1  0
 18 19  2  0
 19 20  1  0
 20 21  2  0
 15 22  1  0
 22 23  1  0
 23 24  1  0
 24 25  1  0
 25 26  1  0
 26 27  1  0
 27 28  2  0
 27 29  2  0
 14 30  1  0
  7 31  2  0
 31 32  1  0
 32 33  1  0
 33 34  1  0
 34 35  1  0
 34 36  1  0
 33  2  1  0
 34  2  1  0
 31  4  1  0
 30 11  2  0
 21 16  1  0
 27 22  1  0
  1 37  1  0
  1 38  1  0
  1 39  1  0
  3 40  1  0
  3 41  1  0
  6 42  1  0
 10 43  1  0
 12 44  1  0
 15 45  1  6
 17 46  1  0
 18 47  1  0
 19 48  1  0
 20 49  1  0
 21 50  1  0
 22 51  1  1
 23 52  1  0
 23 53  1  0
 24 54  1  0
 24 55  1  0
 25 56  1  0
 25 57  1  0
 26 58  1  0
 26 59  1  0
 30 60  1  0
 32 61  1  0
 32 62  1  0
 33 63  1  1
M  END
>  <meeko>  (2) 
{"is_sidechain": [false], "free_energy": -9.884, "intermolecular_energy": -12.155, "internal_energy": -1.251}

$$$$
4rfm_ligand
     RDKit          3D

 63 68  0  0  0  0  0  0  0  0999 V2000
    4.4560   -8.7160   -3.6030 C   0  0  0  0  0  0  0  0  0  0  0  0
    5.4380   -9.4860   -2.7660 C   0  0  1  0  0  0  0  0  0  0  0  0
    6.8780   -9.4220   -3.2550 C   0  0  0  0  0  0  0  0  0  0  0  0
    7.8990   -9.3850   -2.1650 C   0  0  0  0  0  0  0  0  0  0  0  0
    9.1930   -9.1950   -2.4180 N   0  0  0  0  0  0  0  0  0  0  0  0
    9.7540   -9.1930   -1.1990 N   0  0  0  0  0  0  0  0  0  0  0  0
    8.8720   -9.3990   -0.1650 C   0  0  0  0  0  0  0  0  0  0  0  0
    9.3640   -9.4180    1.1960 C   0  0  0  0  0  0  0  0  0  0  0  0
    9.2060  -10.4150    1.8960 O   0  0  0  0  0  0  0  0  0  0  0  0
    9.9730   -8.2550    1.6170 N   0  0  0  0  0  0  0  0  0  0  0  0
   10.5500   -8.0550    2.8590 C   0  0  0  0  0  0  0  0  0  0  0  0
    9.8810   -7.7910    4.0730 C   0  0  0  0  0  0  0  0  0  0  0  0
   10.7180   -7.6460    5.1000 N   0  0  0  0  0  0  0  0  0  0  0  0
   11.9420   -7.7970    4.5470 N   0  0  0  0  0  0  0  0  0  0  0  0
   13.1420   -7.7290    5.4120 C   0  0  2  0  0  0  0  0  0  0  0  0
   13.4380   -6.2860    5.8220 C   0  0  0  0  0  0  0  0  0  0  0  0
   13.8770   -6.0210    7.1310 C   0  0  0  0  0  0  0  0  0  0  0  0
   14.1770   -4.7210    7.5450 C   0  0  0  0  0  0  0  0  0  0  0  0
   14.0360   -3.6570    6.6610 C   0  0  0  0  0  0  0  0  0  0  0  0
   13.5910   -3.8930    5.3640 C   0  0  0  0  0  0  0  0  0  0  0  0
   13.2930   -5.1950    4.9470 C   0  0  0  0  0  0  0  0  0  0  0  0
   14.3140   -8.5580    4.8270 C   0  0  1  0  0  0  0  0  0  0  0  0
   15.4970   -7.8050    4.1890 C   0  0  0  0  0  0  0  0  0  0  0  0
   16.6510   -7.5060    5.1420 C   0  0  0  0  0  0  0  0  0  0  0  0
   17.3790   -8.7610    5.6370 C   0  0  0  0  0  0  0  0  0  0  0  0
   16.5620  -10.0410    5.5580 C   0  0  0  0  0  0  0  0  0  0  0  0
   14.8720   -9.7740    6.0310 S   0  0  0  0  0  0  0  0  0  0  0  0
   14.8870   -9.1900    7.3560 O   0  0  0  0  0  0  0  0  0  0  0  0
   14.1530  -11.0080    5.7800 O   0  0  0  0  0  0  0  0  0  0  0  0
   11.8790   -8.0620    3.2040 C   0  0  0  0  0  0  0  0  0  0  0  0
    7.6310   -9.5140   -0.7770 C   0  0  0  0  0  0  0  0  0  0  0  0
    6.2550   -9.6910   -0.2340 C   0  0  0  0  0  0  0  0  0  0  0  0
    5.1540   -9.6320   -1.2590 C   0  0  2  0  0  0  0  0  0  0  0  0
    4.9770  -10.7790   -2.1870 C   0  0  0  0  0  0  0  0  0  0  0  0
    3.7110  -11.2570   -2.4390 F   0  0  0  0  0  0  0  0  0  0  0  0
    5.8110  -11.8700   -2.1110 F   0  0  0  0  0  0  0  0  0  0  0  0
    3.7618   -8.1716   -2.9460 H   0  0  0  0  0  0  0  0  0  0  0  0
    4.9979   -7.9996   -4.2379 H   0  0  0  0  0  0  0  0  0  0  0  0
    3.8895   -9.4131   -4.2379 H   0  0  0  0  0  0  0  0  0  0  0  0
    7.0701  -10.3092   -3.8763 H   0  0  0  0  0  0  0  0  0  0  0  0
    6.9788   -8.4786   -3.8116 H   0  0  0  0  0  0  0  0  0  0  0  0
   10.7550   -9.0450   -1.1190 H   0  0  0  0  0  0  0  0  0  0  0  0
    9.9610   -7.4530    1.0080 H   0  0  0  0  0  0  0  0  0  0  0  0
    8.7874   -7.7133    4.1621 H   0  0  0  0  0  0  0  0  0  0  0  0
   12.9493   -8.2313    6.3714 H   0  0  0  0  0  0  0  0  0  0  0  0
   13.9863   -6.8528    7.8424 H   0  0  0  0  0  0  0  0  0  0  0  0
   14.5254   -4.5387    8.5723 H   0  0  0  0  0  0  0  0  0  0  0  0
   14.2751   -2.6335    6.9855 H   0  0  0  0  0  0  0  0  0  0  0  0
   13.4730   -3.0529    4.6638 H   0  0  0  0  0  0  0  0  0  0  0  0
   12.9401   -5.3675    3.9195 H   0  0  0  0  0  0  0  0  0  0  0  0
   13.8659   -9.0424    3.9469 H   0  0  0  0  0  0  0  0  0  0  0  0
   15.8858   -8.4162    3.3612 H   0  0  0  0  0  0  0  0  0  0  0  0
   15.1048   -6.8311    3.8608 H   0  0  0  0  0  0  0  0  0  0  0  0
   17.3771   -6.8663    4.6190 H   0  0  0  0  0  0  0  0  0  0  0  0
   16.2199   -7.0133    6.0260 H   0  0  0  0  0  0  0  0  0  0  0  0
   18.2851   -8.8945    5.0277 H   0  0  0  0  0  0  0  0  0  0  0  0
   17.5953   -8.5952    6.7027 H   0  0  0  0  0  0  0  0  0  0  0  0
   16.5875  -10.4165    4.5244 H   0  0  0  0  0  0  0  0  0  0  0  0
   17.0010  -10.7706    6.2544 H   0  0  0  0  0  0  0  0  0  0  0  0
   12.7299   -8.2452    2.5314 H   0  0  0  0  0  0  0  0  0  0  0  0
    6.2074  -10.6718    0.2618 H   0  0  0  0  0  0  0  0  0  0  0  0
    6.0836   -8.8469    0.4502 H   0  0  0  0  0  0  0  0  0  0  0  0
    4.5340   -9.0745   -0.5415 H   0  0  0  0  0  0  0  0  0  0  0  0
  2  1  1  6
  2  3  1  0
  3  4  1  0
  4  5  2  0
  5  6  1  0
  6  7  1  0
  7  8  1  0
  8  9  2  0
  8 10  1  0
 10 11  1  0
 11 12  1  0
 12 13  2  0
 13 14  1  0
 14 15  1  0
 15 16  1  0
 16 17  2  0
 17 18  1  0
 18 19  2  0
 19 20  1  0
 20 21  2  0
 15 22  1  0
 22 23  1  0
 23 24  1  0
 24 25  1  0
 25 26  1  0
 26 27  1  0
 27 28  2  0
 27 29  2  0
 14 30  1  0
  7 31  2  0
 31 32  1  0
 32 33  1  0
 33 34  1  0
 34 35  1  0
 34 36  1  0
 33  2  1  0
 34  2  1  0
 31  4  1  0
 30 11  2  0
 21 16  1  0
 27 22  1  0
  1 37  1  0
  1 38  1  0
  1 39  1  0
  3 40  1  0
  3 41  1  0
  6 42  1  0
 10 43  1  0
 12 44  1  0
 15 45  1  1
 17 46  1  0
 18 47  1  0
 19 48  1  0
 20 49  1  0
 21 50  1  0
 22 51  1  6
 23 52  1  0
 23 53  1  0
 24 54  1  0
 24 55  1  0
 25 56  1  0
 25 57  1  0
 26 58  1  0
 26 59  1  0
 30 60  1  0
 32 61  1  0
 32 62  1  0
 33 63  1  1
M  END
>  <meeko>  (3) 
{"is_sidechain": [false], "free_energy": -9.775, "intermolecular_energy": -11.925, "internal_energy": -1.34}

$$$$
4rfm_ligand
     RDKit          3D

 63 68  0  0  0  0  0  0  0  0999 V2000
    4.0950   -8.5740   -3.8720 C   0  0  0  0  0  0  0  0  0  0  0  0
    4.8210   -9.4080   -2.8550 C   0  0  1  0  0  0  0  0  0  0  0  0
    6.3010   -9.6190   -3.1460 C   0  0  0  0  0  0  0  0  0  0  0  0
    7.1700   -9.6430   -1.9310 C   0  0  0  0  0  0  0  0  0  0  0  0
    8.4990   -9.6850   -2.0170 N   0  0  0  0  0  0  0  0  0  0  0  0
    8.8970   -9.6580   -0.7360 N   0  0  0  0  0  0  0  0  0  0  0  0
    7.8720   -9.6250    0.1800 C   0  0  0  0  0  0  0  0  0  0  0  0
    8.1820   -9.5950    1.5920 C   0  0  0  0  0  0  0  0  0  0  0  0
    8.9300  -10.4400    2.0790 O   0  0  0  0  0  0  0  0  0  0  0  0
    7.5650   -8.5910    2.3090 N   0  0  0  0  0  0  0  0  0  0  0  0
    7.7410   -8.3440    3.6590 C   0  0  0  0  0  0  0  0  0  0  0  0
    8.9410   -7.9780    4.3050 C   0  0  0  0  0  0  0  0  0  0  0  0
    8.7870   -7.8110    5.6190 N   0  0  0  0  0  0  0  0  0  0  0  0
    7.4810   -8.0900    5.8320 N   0  0  0  0  0  0  0  0  0  0  0  0
    6.9290   -7.9750    7.2010 C   0  0  2  0  0  0  0  0  0  0  0  0
    7.6850   -8.8830    8.1720 C   0  0  0  0  0  0  0  0  0  0  0  0
    8.1660   -8.3470    9.3790 C   0  0  0  0  0  0  0  0  0  0  0  0
    8.8470   -9.1410   10.3050 C   0  0  0  0  0  0  0  0  0  0  0  0
    9.0680  -10.4880   10.0380 C   0  0  0  0  0  0  0  0  0  0  0  0
    8.6130  -11.0390    8.8440 C   0  0  0  0  0  0  0  0  0  0  0  0
    7.9290  -10.2440    7.9180 C   0  0  0  0  0  0  0  0  0  0  0  0
    5.3820   -8.0650    7.2010 C   0  0  1  0  0  0  0  0  0  0  0  0
    4.6950   -8.8860    8.3090 C   0  0  0  0  0  0  0  0  0  0  0  0
    4.2950   -8.0810    9.5440 C   0  0  0  0  0  0  0  0  0  0  0  0
    3.1990   -7.0450    9.2720 C   0  0  0  0  0  0  0  0  0  0  0  0
    3.0770   -6.6170    7.8180 C   0  0  0  0  0  0  0  0  0  0  0  0
    4.6680   -6.4190    7.0540 S   0  0  0  0  0  0  0  0  0  0  0  0
    5.4150   -5.4790    7.8630 O   0  0  0  0  0  0  0  0  0  0  0  0
    4.4410   -6.1590    5.6460 O   0  0  0  0  0  0  0  0  0  0  0  0
    6.8170   -8.3970    4.6730 C   0  0  0  0  0  0  0  0  0  0  0  0
    6.7150   -9.5980   -0.5880 C   0  0  0  0  0  0  0  0  0  0  0  0
    5.2720   -9.5030   -0.2270 C   0  0  0  0  0  0  0  0  0  0  0  0
    4.3320   -9.3660   -1.3950 C   0  0  2  0  0  0  0  0  0  0  0  0
    4.0800  -10.5520   -2.2540 C   0  0  0  0  0  0  0  0  0  0  0  0
    2.7920  -10.8450   -2.6430 F   0  0  0  0  0  0  0  0  0  0  0  0
    4.7010  -11.7500   -1.9870 F   0  0  0  0  0  0  0  0  0  0  0  0
    3.4568   -7.8409   -3.3569 H   0  0  0  0  0  0  0  0  0  0  0  0
    4.8257   -8.0455   -4.5019 H   0  0  0  0  0  0  0  0  0  0  0  0
    3.4709   -9.2249   -4.5019 H   0  0  0  0  0  0  0  0  0  0  0  0
    6.4154  -10.5793   -3.6702 H   0  0  0  0  0  0  0  0  0  0  0  0
    6.6285   -8.7600   -3.7501 H   0  0  0  0  0  0  0  0  0  0  0  0
    9.8910   -9.6640   -0.5300 H   0  0  0  0  0  0  0  0  0  0  0  0
    6.8850   -8.0110    1.8440 H   0  0  0  0  0  0  0  0  0  0  0  0
    9.8993   -7.8449    3.7816 H   0  0  0  0  0  0  0  0  0  0  0  0
    7.1103   -6.9667    7.6015 H   0  0  0  0  0  0  0  0  0  0  0  0
    8.0031   -7.2816    9.5988 H   0  0  0  0  0  0  0  0  0  0  0  0
    9.2087   -8.7006   11.2459 H   0  0  0  0  0  0  0  0  0  0  0  0
    9.6005  -11.1154   10.7680 H   0  0  0  0  0  0  0  0  0  0  0  0
    8.7916  -12.1026    8.6276 H   0  0  0  0  0  0  0  0  0  0  0  0
    7.5767  -10.6908    6.9766 H   0  0  0  0  0  0  0  0  0  0  0  0
    5.1651   -8.6771    6.3132 H   0  0  0  0  0  0  0  0  0  0  0  0
    3.7863   -9.3394    7.8863 H   0  0  0  0  0  0  0  0  0  0  0  0
    5.4318   -9.6293    8.6475 H   0  0  0  0  0  0  0  0  0  0  0  0
    3.9305   -8.7796   10.3115 H   0  0  0  0  0  0  0  0  0  0  0  0
    5.1876   -7.5281    9.8719 H   0  0  0  0  0  0  0  0  0  0  0  0
    2.2359   -7.4747    9.5848 H   0  0  0  0  0  0  0  0  0  0  0  0
    3.4751   -6.1439    9.8393 H   0  0  0  0  0  0  0  0  0  0  0  0
    2.5104   -7.3826    7.2677 H   0  0  0  0  0  0  0  0  0  0  0  0
    2.5603   -5.6463    7.7892 H   0  0  0  0  0  0  0  0  0  0  0  0
    5.7486   -8.6394    4.5742 H   0  0  0  0  0  0  0  0  0  0  0  0
    4.9980  -10.4132    0.3267 H   0  0  0  0  0  0  0  0  0  0  0  0
    5.1630   -8.5824    0.3651 H   0  0  0  0  0  0  0  0  0  0  0  0
    3.7312   -8.6530   -0.8114 H   0  0  0  0  0  0  0  0  0  0  0  0
  2  1  1  6
  2  3  1  0
  3  4  1  0
  4  5  2  0
  5  6  1  0
  6  7  1  0
  7  8  1  0
  8  9  2  0
  8 10  1  0
 10 11  1  0
 11 12  1  0
 12 13  2  0
 13 14  1  0
 14 15  1  0
 15 16  1  0
 16 17  2  0
 17 18  1  0
 18 19  2  0
 19 20  1  0
 20 21  2  0
 15 22  1  0
 22 23  1  0
 23 24  1  0
 24 25  1  0
 25 26  1  0
 26 27  1  0
 27 28  2  0
 27 29  2  0
 14 30  1  0
  7 31  2  0
 31 32  1  0
 32 33  1  0
 33 34  1  0
 34 35  1  0
 34 36  1  0
 33  2  1  0
 34  2  1  0
 31  4  1  0
 30 11  2  0
 21 16  1  0
 27 22  1  0
  1 37  1  0
  1 38  1  0
  1 39  1  0
  3 40  1  0
  3 41  1  0
  6 42  1  0
 10 43  1  0
 12 44  1  0
 15 45  1  1
 17 46  1  0
 18 47  1  0
 19 48  1  0
 20 49  1  0
 21 50  1  0
 22 51  1  6
 23 52  1  0
 23 53  1  0
 24 54  1  0
 24 55  1  0
 25 56  1  0
 25 57  1  0
 26 58  1  0
 26 59  1  0
 30 60  1  0
 32 61  1  0
 32 62  1  0
 33 63  1  1
M  END
>  <meeko>  (4) 
{"is_sidechain": [false], "free_energy": -9.639, "intermolecular_energy": -11.773, "internal_energy": -1.317}

$$$$
4rfm_ligand
     RDKit          3D

 63 68  0  0  0  0  0  0  0  0999 V2000
   -1.4080  -10.2810    9.8060 C   0  0  0  0  0  0  0  0  0  0  0  0
   -0.5650   -9.3950    8.9330 C   0  0  1  0  0  0  0  0  0  0  0  0
    0.8480   -9.1560    9.4460 C   0  0  0  0  0  0  0  0  0  0  0  0
    1.8860   -9.0690    8.3750 C   0  0  0  0  0  0  0  0  0  0  0  0
    3.1860   -8.9960    8.6580 N   0  0  0  0  0  0  0  0  0  0  0  0
    3.7690   -8.9690    7.4500 N   0  0  0  0  0  0  0  0  0  0  0  0
    2.8910   -8.9970    6.3920 C   0  0  0  0  0  0  0  0  0  0  0  0
    3.4060   -8.9720    5.0400 C   0  0  0  0  0  0  0  0  0  0  0  0
    2.6660   -9.2230    4.0930 O   0  0  0  0  0  0  0  0  0  0  0  0
    4.7500   -8.6800    4.9280 N   0  0  0  0  0  0  0  0  0  0  0  0
    5.4490   -8.5640    3.7390 C   0  0  0  0  0  0  0  0  0  0  0  0
    5.9900   -7.3840    3.1860 C   0  0  0  0  0  0  0  0  0  0  0  0
    6.6100   -7.5970    2.0250 N   0  0  0  0  0  0  0  0  0  0  0  0
    6.4530   -8.9230    1.8110 N   0  0  0  0  0  0  0  0  0  0  0  0
    7.0510   -9.5390    0.6050 C   0  0  2  0  0  0  0  0  0  0  0  0
    8.5620   -9.3120    0.5690 C   0  0  0  0  0  0  0  0  0  0  0  0
    9.1490   -8.7780   -0.5910 C   0  0  0  0  0  0  0  0  0  0  0  0
   10.5230   -8.5360   -0.6640 C   0  0  0  0  0  0  0  0  0  0  0  0
   11.3410   -8.8330    0.4210 C   0  0  0  0  0  0  0  0  0  0  0  0
   10.7850   -9.3750    1.5760 C   0  0  0  0  0  0  0  0  0  0  0  0
    9.4090   -9.6150    1.6500 C   0  0  0  0  0  0  0  0  0  0  0  0
    6.2470   -9.1880   -0.6730 C   0  0  1  0  0  0  0  0  0  0  0  0
    6.5550   -9.9640   -1.9680 C   0  0  0  0  0  0  0  0  0  0  0  0
    5.6880  -11.2010   -2.1910 C   0  0  0  0  0  0  0  0  0  0  0  0
    4.2080  -10.8800   -2.4270 C   0  0  0  0  0  0  0  0  0  0  0  0
    3.7600   -9.5290   -1.8920 C   0  0  0  0  0  0  0  0  0  0  0  0
    4.4840   -9.1730   -0.3100 S   0  0  0  0  0  0  0  0  0  0  0  0
    4.1490  -10.2740    0.5700 O   0  0  0  0  0  0  0  0  0  0  0  0
    4.1150   -7.8150    0.0390 O   0  0  0  0  0  0  0  0  0  0  0  0
    5.7740   -9.5390    2.8300 C   0  0  0  0  0  0  0  0  0  0  0  0
    1.6350   -9.0800    6.9780 C   0  0  0  0  0  0  0  0  0  0  0  0
    0.2640   -9.1990    6.4050 C   0  0  0  0  0  0  0  0  0  0  0  0
   -0.8320   -9.3990    7.4160 C   0  0  2  0  0  0  0  0  0  0  0  0
   -1.2440   -8.2500    8.2640 C   0  0  0  0  0  0  0  0  0  0  0  0
   -2.5840   -8.0040    8.4660 F   0  0  0  0  0  0  0  0  0  0  0  0
   -0.6270   -7.0290    8.1270 F   0  0  0  0  0  0  0  0  0  0  0  0
   -1.1984  -10.0607   10.8631 H   0  0  0  0  0  0  0  0  0  0  0  0
   -2.4721  -10.0964    9.5970 H   0  0  0  0  0  0  0  0  0  0  0  0
   -1.1707  -11.3346    9.5970 H   0  0  0  0  0  0  0  0  0  0  0  0
    0.8545   -8.2111   10.0092 H   0  0  0  0  0  0  0  0  0  0  0  0
    1.1086  -10.0262   10.0663 H   0  0  0  0  0  0  0  0  0  0  0  0
    4.7820   -8.9310    7.3930 H   0  0  0  0  0  0  0  0  0  0  0  0
    5.2990   -8.5950    5.7670 H   0  0  0  0  0  0  0  0  0  0  0  0
    5.9090   -6.3953    3.6613 H   0  0  0  0  0  0  0  0  0  0  0  0
    6.9596  -10.6342    0.6512 H   0  0  0  0  0  0  0  0  0  0  0  0
    8.5139   -8.5460   -1.4587 H   0  0  0  0  0  0  0  0  0  0  0  0
   10.9582   -8.1103   -1.5802 H   0  0  0  0  0  0  0  0  0  0  0  0
   12.4226   -8.6403    0.3664 H   0  0  0  0  0  0  0  0  0  0  0  0
   11.4301   -9.6155    2.4339 H   0  0  0  0  0  0  0  0  0  0  0  0
    8.9830  -10.0472    2.5675 H   0  0  0  0  0  0  0  0  0  0  0  0
    6.6104   -8.1825   -0.9316 H   0  0  0  0  0  0  0  0  0  0  0  0
    6.4064   -9.2832   -2.8192 H   0  0  0  0  0  0  0  0  0  0  0  0
    7.5910  -10.3225   -1.8769 H   0  0  0  0  0  0  0  0  0  0  0  0
    6.0711  -11.7401   -3.0700 H   0  0  0  0  0  0  0  0  0  0  0  0
    5.7444  -11.8036   -1.2725 H   0  0  0  0  0  0  0  0  0  0  0  0
    4.0215  -10.8987   -3.5109 H   0  0  0  0  0  0  0  0  0  0  0  0
    3.6328  -11.6393   -1.8769 H   0  0  0  0  0  0  0  0  0  0  0  0
    4.0596   -8.7466   -2.6048 H   0  0  0  0  0  0  0  0  0  0  0  0
    2.6671   -9.5550   -1.7697 H   0  0  0  0  0  0  0  0  0  0  0  0
    5.5353  -10.6102    2.9047 H   0  0  0  0  0  0  0  0  0  0  0  0
    0.0472   -8.2778    5.8444 H   0  0  0  0  0  0  0  0  0  0  0  0
    0.2707  -10.1014    5.7760 H   0  0  0  0  0  0  0  0  0  0  0  0
   -1.3183  -10.1064    6.7282 H   0  0  0  0  0  0  0  0  0  0  0  0
  2  1  1  1
  2  3  1  0
  3  4  1  0
  4  5  2  0
  5  6  1  0
  6  7  1  0
  7  8  1  0
  8  9  2  0
  8 10  1  0
 10 11  1  0
 11 12  1  0
 12 13  2  0
 13 14  1  0
 14 15  1  0
 15 16  1  0
 16 17  2  0
 17 18  1  0
 18 19  2  0
 19 20  1  0
 20 21  2  0
 15 22  1  0
 22 23  1  0
 23 24  1  0
 24 25  1  0
 25 26  1  0
 26 27  1  0
 27 28  2  0
 27 29  2  0
 14 30  1  0
  7 31  2  0
 31 32  1  0
 32 33  1  0
 33 34  1  0
 34 35  1  0
 34 36  1  0
 33  2  1  0
 34  2  1  0
 31  4  1  0
 30 11  2  0
 21 16  1  0
 27 22  1  0
  1 37  1  0
  1 38  1  0
  1 39  1  0
  3 40  1  0
  3 41  1  0
  6 42  1  0
 10 43  1  0
 12 44  1  0
 15 45  1  1
 17 46  1  0
 18 47  1  0
 19 48  1  0
 20 49  1  0
 21 50  1  0
 22 51  1  6
 23 52  1  0
 23 53  1  0
 24 54  1  0
 24 55  1  0
 25 56  1  0
 25 57  1  0
 26 58  1  0
 26 59  1  0
 30 60  1  0
 32 61  1  0
 32 62  1  0
 33 63  1  6
M  END
>  <meeko>  (5) 
{"is_sidechain": [false], "free_energy": -9.574, "intermolecular_energy": -13.131, "internal_energy": 0.125}

$$$$
4rfm_ligand
     RDKit          3D

 63 68  0  0  0  0  0  0  0  0999 V2000
    4.6180   -8.8540   -3.9650 C   0  0  0  0  0  0  0  0  0  0  0  0
    5.0800   -9.4400   -2.6600 C   0  0  1  0  0  0  0  0  0  0  0  0
    6.5660   -9.7660   -2.6010 C   0  0  0  0  0  0  0  0  0  0  0  0
    7.1970   -9.5220   -1.2690 C   0  0  0  0  0  0  0  0  0  0  0  0
    8.5120   -9.6290   -1.0830 N   0  0  0  0  0  0  0  0  0  0  0  0
    8.6730   -9.3040    0.2090 N   0  0  0  0  0  0  0  0  0  0  0  0
    7.5060   -9.0140    0.8750 C   0  0  0  0  0  0  0  0  0  0  0  0
    7.5570   -8.6510    2.2740 C   0  0  0  0  0  0  0  0  0  0  0  0
    8.4510   -7.9170    2.6890 O   0  0  0  0  0  0  0  0  0  0  0  0
    6.5700   -9.2040    3.0620 N   0  0  0  0  0  0  0  0  0  0  0  0
    6.3980   -8.9700    4.4150 C   0  0  0  0  0  0  0  0  0  0  0  0
    7.2830   -9.3230    5.4560 C   0  0  0  0  0  0  0  0  0  0  0  0
    6.8340   -8.9600    6.6580 N   0  0  0  0  0  0  0  0  0  0  0  0
    5.6380   -8.3840    6.3990 N   0  0  0  0  0  0  0  0  0  0  0  0
    4.8460   -7.8210    7.5160 C   0  0  2  0  0  0  0  0  0  0  0  0
    3.3840   -7.6370    7.1090 C   0  0  0  0  0  0  0  0  0  0  0  0
    2.3820   -8.3130    7.8260 C   0  0  0  0  0  0  0  0  0  0  0  0
    1.0320   -8.1620    7.5030 C   0  0  0  0  0  0  0  0  0  0  0  0
    0.6550   -7.3370    6.4490 C   0  0  0  0  0  0  0  0  0  0  0  0
    1.6300   -6.6670    5.7160 C   0  0  0  0  0  0  0  0  0  0  0  0
    2.9820   -6.8160    6.0410 C   0  0  0  0  0  0  0  0  0  0  0  0
    5.5620   -6.6110    8.1690 C   0  0  1  0  0  0  0  0  0  0  0  0
    4.8880   -5.2280    8.0830 C   0  0  0  0  0  0  0  0  0  0  0  0
    3.9880   -4.8830    9.2670 C   0  0  0  0  0  0  0  0  0  0  0  0
    4.7480   -4.7200   10.5880 C   0  0  0  0  0  0  0  0  0  0  0  0
    6.0980   -5.4180   10.6340 C   0  0  0  0  0  0  0  0  0  0  0  0
    6.0410   -7.0140    9.8560 S   0  0  0  0  0  0  0  0  0  0  0  0
    4.9880   -7.7670   10.5050 O   0  0  0  0  0  0  0  0  0  0  0  0
    7.3960   -7.5260    9.8220 O   0  0  0  0  0  0  0  0  0  0  0  0
    5.3520   -8.3570    5.0590 C   0  0  0  0  0  0  0  0  0  0  0  0
    6.5120   -9.1360   -0.0880 C   0  0  0  0  0  0  0  0  0  0  0  0
    5.0400   -8.9070   -0.0470 C   0  0  0  0  0  0  0  0  0  0  0  0
    4.3400   -9.0270   -1.3740 C   0  0  2  0  0  0  0  0  0  0  0  0
    4.1530  -10.3770   -1.9660 C   0  0  0  0  0  0  0  0  0  0  0  0
    2.9370  -10.7110   -2.5180 F   0  0  0  0  0  0  0  0  0  0  0  0
    4.6180  -11.4940   -1.3110 F   0  0  0  0  0  0  0  0  0  0  0  0
    3.9479   -8.0041   -3.7685 H   0  0  0  0  0  0  0  0  0  0  0  0
    5.4893   -8.5085   -4.5407 H   0  0  0  0  0  0  0  0  0  0  0  0
    4.0787   -9.6206   -4.5407 H   0  0  0  0  0  0  0  0  0  0  0  0
    6.6958  -10.8286   -2.8541 H   0  0  0  0  0  0  0  0  0  0  0  0
    7.0646   -9.0925   -3.3136 H   0  0  0  0  0  0  0  0  0  0  0  0
    9.6100   -9.2940    0.6000 H   0  0  0  0  0  0  0  0  0  0  0  0
    5.9450   -9.8800    2.6540 H   0  0  0  0  0  0  0  0  0  0  0  0
    8.2395   -9.8414    5.2935 H   0  0  0  0  0  0  0  0  0  0  0  0
    4.7900   -8.5413    8.3454 H   0  0  0  0  0  0  0  0  0  0  0  0
    2.6668   -8.9740    8.6579 H   0  0  0  0  0  0  0  0  0  0  0  0
    0.2654   -8.6965    8.0832 H   0  0  0  0  0  0  0  0  0  0  0  0
   -0.4085   -7.2146    6.1959 H   0  0  0  0  0  0  0  0  0  0  0  0
    1.3361   -6.0179    4.8780 H   0  0  0  0  0  0  0  0  0  0  0  0
    3.7426   -6.2826    5.4519 H   0  0  0  0  0  0  0  0  0  0  0  0
    6.4434   -6.4621    7.5279 H   0  0  0  0  0  0  0  0  0  0  0  0
    5.6779   -4.4651    8.0191 H   0  0  0  0  0  0  0  0  0  0  0  0
    4.2385   -5.2532    7.1956 H   0  0  0  0  0  0  0  0  0  0  0  0
    3.4687   -3.9389    9.0457 H   0  0  0  0  0  0  0  0  0  0  0  0
    3.2903   -5.7233    9.3976 H   0  0  0  0  0  0  0  0  0  0  0  0
    4.9116   -3.6458   10.7590 H   0  0  0  0  0  0  0  0  0  0  0  0
    4.1274   -5.1919   11.3640 H   0  0  0  0  0  0  0  0  0  0  0  0
    6.8395   -4.7942   10.1134 H   0  0  0  0  0  0  0  0  0  0  0  0
    6.3736   -5.5612   11.6892 H   0  0  0  0  0  0  0  0  0  0  0  0
    4.4555   -7.9264    4.5892 H   0  0  0  0  0  0  0  0  0  0  0  0
    4.5989   -9.6448    0.6393 H   0  0  0  0  0  0  0  0  0  0  0  0
    4.9000   -7.8665    0.2813 H   0  0  0  0  0  0  0  0  0  0  0  0
    3.7022   -8.1735   -1.1003 H   0  0  0  0  0  0  0  0  0  0  0  0
  2  1  1  6
  2  3  1  0
  3  4  1  0
  4  5  2  0
  5  6  1  0
  6  7  1  0
  7  8  1  0
  8  9  2  0
  8 10  1  0
 10 11  1  0
 11 12  1  0
 12 13  2  0
 13 14  1  0
 14 15  1  0
 15 16  1  0
 16 17  2  0
 17 18  1  0
 18 19  2  0
 19 20  1  0
 20 21  2  0
 15 22  1  0
 22 23  1  0
 23 24  1  0
 24 25  1  0
 25 26  1  0
 26 27  1  0
 27 28  2  0
 27 29  2  0
 14 30  1  0
  7 31  2  0
 31 32  1  0
 32 33  1  0
 33 34  1  0
 34 35  1  0
 34 36  1  0
 33  2  1  0
 34  2  1  0
 31  4  1  0
 30 11  2  0
 21 16  1  0
 27 22  1  0
  1 37  1  0
  1 38  1  0
  1 39  1  0
  3 40  1  0
  3 41  1  0
  6 42  1  0
 10 43  1  0
 12 44  1  0
 15 45  1  1
 17 46  1  0
 18 47  1  0
 19 48  1  0
 20 49  1  0
 21 50  1  0
 22 51  1  6
 23 52  1  0
 23 53  1  0
 24 54  1  0
 24 55  1  0
 25 56  1  0
 25 57  1  0
 26 58  1  0
 26 59  1  0
 30 60  1  0
 32 61  1  0
 32 62  1  0
 33 63  1  6
M  END
>  <meeko>  (6) 
{"is_sidechain": [false], "free_energy": -9.56, "intermolecular_energy": -12.355, "internal_energy": -0.633}

$$$$
4rfm_ligand
     RDKit          3D

 63 68  0  0  0  0  0  0  0  0999 V2000
    2.8670  -10.7290   -2.4630 C   0  0  0  0  0  0  0  0  0  0  0  0
    4.0310   -9.9110   -1.9770 C   0  0  1  0  0  0  0  0  0  0  0  0
    3.8820   -9.3740   -0.5600 C   0  0  0  0  0  0  0  0  0  0  0  0
    5.1540   -9.3410    0.2230 C   0  0  0  0  0  0  0  0  0  0  0  0
    5.1770   -9.0270    1.5180 N   0  0  0  0  0  0  0  0  0  0  0  0
    6.4720   -9.1450    1.8460 N   0  0  0  0  0  0  0  0  0  0  0  0
    7.2960   -9.5030    0.8050 C   0  0  0  0  0  0  0  0  0  0  0  0
    8.7140   -9.6600    1.0420 C   0  0  0  0  0  0  0  0  0  0  0  0
    9.1300  -10.6230    1.6820 O   0  0  0  0  0  0  0  0  0  0  0  0
    9.5110   -8.6590    0.5280 N   0  0  0  0  0  0  0  0  0  0  0  0
   10.8920   -8.6170    0.5980 C   0  0  0  0  0  0  0  0  0  0  0  0
   11.7970   -8.6150   -0.4850 C   0  0  0  0  0  0  0  0  0  0  0  0
   13.0700   -8.5700   -0.0920 N   0  0  0  0  0  0  0  0  0  0  0  0
   12.9940   -8.5630    1.2580 N   0  0  0  0  0  0  0  0  0  0  0  0
   14.2390   -8.4840    2.0540 C   0  0  2  0  0  0  0  0  0  0  0  0
   15.4370   -8.9820    1.2450 C   0  0  0  0  0  0  0  0  0  0  0  0
   15.4080  -10.2800    0.7060 C   0  0  0  0  0  0  0  0  0  0  0  0
   16.4710  -10.7720   -0.0550 C   0  0  0  0  0  0  0  0  0  0  0  0
   17.5900   -9.9790   -0.2850 C   0  0  0  0  0  0  0  0  0  0  0  0
   17.6470   -8.6950    0.2490 C   0  0  0  0  0  0  0  0  0  0  0  0
   16.5820   -8.2010    1.0090 C   0  0  0  0  0  0  0  0  0  0  0  0
   14.0450   -9.0710    3.4760 C   0  0  1  0  0  0  0  0  0  0  0  0
   14.9380  -10.2490    3.9090 C   0  0  0  0  0  0  0  0  0  0  0  0
   16.2190   -9.8450    4.6350 C   0  0  0  0  0  0  0  0  0  0  0  0
   15.9710   -9.1920    6.0000 C   0  0  0  0  0  0  0  0  0  0  0  0
   14.5880   -8.5830    6.1690 C   0  0  0  0  0  0  0  0  0  0  0  0
   14.0510   -7.7480    4.6970 S   0  0  0  0  0  0  0  0  0  0  0  0
   15.0680   -6.7710    4.3650 O   0  0  0  0  0  0  0  0  0  0  0  0
   12.6780   -7.3360    4.9100 O   0  0  0  0  0  0  0  0  0  0  0  0
   11.6990   -8.5730    1.7080 C   0  0  0  0  0  0  0  0  0  0  0  0
    6.4430   -9.6550   -0.2810 C   0  0  0  0  0  0  0  0  0  0  0  0
    6.6770  -10.0810   -1.6900 C   0  0  0  0  0  0  0  0  0  0  0  0
    5.4330  -10.2440   -2.5200 C   0  0  2  0  0  0  0  0  0  0  0  0
    4.7060   -9.0270   -2.9680 C   0  0  0  0  0  0  0  0  0  0  0  0
    4.2570   -8.9470   -4.2670 F   0  0  0  0  0  0  0  0  0  0  0  0
    5.1630   -7.7770   -2.6220 F   0  0  0  0  0  0  0  0  0  0  0  0
    2.3088  -11.1213   -1.6001 H   0  0  0  0  0  0  0  0  0  0  0  0
    2.2039  -10.0973   -3.0722 H   0  0  0  0  0  0  0  0  0  0  0  0
    3.2367  -11.5670   -3.0722 H   0  0  0  0  0  0  0  0  0  0  0  0
    3.4879   -8.3488   -0.6200 H   0  0  0  0  0  0  0  0  0  0  0  0
    3.2056  -10.0624   -0.0323 H   0  0  0  0  0  0  0  0  0  0  0  0
    6.7540   -8.9700    2.8060 H   0  0  0  0  0  0  0  0  0  0  0  0
    9.0710   -7.8550    0.1110 H   0  0  0  0  0  0  0  0  0  0  0  0
   11.4855   -8.6471   -1.5395 H   0  0  0  0  0  0  0  0  0  0  0  0
   14.4925   -7.4340    2.2618 H   0  0  0  0  0  0  0  0  0  0  0  0
   14.5319  -10.9201    0.8869 H   0  0  0  0  0  0  0  0  0  0  0  0
   16.4229  -11.7883   -0.4730 H   0  0  0  0  0  0  0  0  0  0  0  0
   18.4264  -10.3648   -0.8863 H   0  0  0  0  0  0  0  0  0  0  0  0
   18.5326   -8.0667    0.0727 H   0  0  0  0  0  0  0  0  0  0  0  0
   16.6411   -7.1859    1.4285 H   0  0  0  0  0  0  0  0  0  0  0  0
   13.0595   -9.5562    3.4172 H   0  0  0  0  0  0  0  0  0  0  0  0
   14.3524  -10.8941    4.5805 H   0  0  0  0  0  0  0  0  0  0  0  0
   15.2514  -10.7573    2.9852 H   0  0  0  0  0  0  0  0  0  0  0  0
   16.8317  -10.7459    4.7866 H   0  0  0  0  0  0  0  0  0  0  0  0
   16.7238   -9.0967    4.0063 H   0  0  0  0  0  0  0  0  0  0  0  0
   16.1052   -9.9593    6.7767 H   0  0  0  0  0  0  0  0  0  0  0  0
   16.6889   -8.3628    6.0837 H   0  0  0  0  0  0  0  0  0  0  0  0
   13.8724   -9.3844    6.4049 H   0  0  0  0  0  0  0  0  0  0  0  0
   14.6367   -7.8444    6.9827 H   0  0  0  0  0  0  0  0  0  0  0  0
   11.3696   -8.5502    2.7573 H   0  0  0  0  0  0  0  0  0  0  0  0
    7.3133   -9.3253   -2.1737 H   0  0  0  0  0  0  0  0  0  0  0  0
    7.1436  -11.0757   -1.6369 H   0  0  0  0  0  0  0  0  0  0  0  0
    5.8785  -11.1336   -2.9892 H   0  0  0  0  0  0  0  0  0  0  0  0
  2  1  1  6
  2  3  1  0
  3  4  1  0
  4  5  2  0
  5  6  1  0
  6  7  1  0
  7  8  1  0
  8  9  2  0
  8 10  1  0
 10 11  1  0
 11 12  1  0
 12 13  2  0
 13 14  1  0
 14 15  1  0
 15 16  1  0
 16 17  2  0
 17 18  1  0
 18 19  2  0
 19 20  1  0
 20 21  2  0
 15 22  1  0
 22 23  1  0
 23 24  1  0
 24 25  1  0
 25 26  1  0
 26 27  1  0
 27 28  2  0
 27 29  2  0
 14 30  1  0
  7 31  2  0
 31 32  1  0
 32 33  1  0
 33 34  1  0
 34 35  1  0
 34 36  1  0
 33  2  1  0
 34  2  1  0
 31  4  1  0
 30 11  2  0
 21 16  1  0
 27 22  1  0
  1 37  1  0
  1 38  1  0
  1 39  1  0
  3 40  1  0
  3 41  1  0
  6 42  1  0
 10 43  1  0
 12 44  1  0
 15 45  1  1
 17 46  1  0
 18 47  1  0
 19 48  1  0
 20 49  1  0
 21 50  1  0
 22 51  1  6
 23 52  1  0
 23 53  1  0
 24 54  1  0
 24 55  1  0
 25 56  1  0
 25 57  1  0
 26 58  1  0
 26 59  1  0
 30 60  1  0
 32 61  1  0
 32 62  1  0
 33 63  1  6
M  END
>  <meeko>  (7) 
{"is_sidechain": [false], "free_energy": -9.532, "intermolecular_energy": -12.126, "internal_energy": -0.825}

$$$$
4rfm_ligand
     RDKit          3D

 63 68  0  0  0  0  0  0  0  0999 V2000
    4.3540   -8.8120   -3.5890 C   0  0  0  0  0  0  0  0  0  0  0  0
    5.5300   -9.5100   -2.9660 C   0  0  1  0  0  0  0  0  0  0  0  0
    6.8560   -9.2790   -3.6770 C   0  0  0  0  0  0  0  0  0  0  0  0
    8.0360   -9.1820   -2.7650 C   0  0  0  0  0  0  0  0  0  0  0  0
    9.2460   -8.8490   -3.2130 N   0  0  0  0  0  0  0  0  0  0  0  0
    9.9980   -8.8380   -2.1020 N   0  0  0  0  0  0  0  0  0  0  0  0
    9.3240   -9.1760   -0.9520 C   0  0  0  0  0  0  0  0  0  0  0  0
   10.0350   -9.1990    0.3080 C   0  0  0  0  0  0  0  0  0  0  0  0
    9.4940   -9.6540    1.3130 O   0  0  0  0  0  0  0  0  0  0  0  0
   11.3040   -8.6620    0.2770 N   0  0  0  0  0  0  0  0  0  0  0  0
   12.1800   -8.6100    1.3470 C   0  0  0  0  0  0  0  0  0  0  0  0
   13.3920   -9.3200    1.4860 C   0  0  0  0  0  0  0  0  0  0  0  0
   14.0130   -9.0560    2.6360 N   0  0  0  0  0  0  0  0  0  0  0  0
   13.1890   -8.1850    3.2590 N   0  0  0  0  0  0  0  0  0  0  0  0
   13.5760   -7.6360    4.5790 C   0  0  2  0  0  0  0  0  0  0  0  0
   12.6770   -8.1890    5.6850 C   0  0  0  0  0  0  0  0  0  0  0  0
   13.2650   -8.7330    6.8400 C   0  0  0  0  0  0  0  0  0  0  0  0
   12.4840   -9.2340    7.8840 C   0  0  0  0  0  0  0  0  0  0  0  0
   11.0970   -9.2080    7.7910 C   0  0  0  0  0  0  0  0  0  0  0  0
   10.4910   -8.6850    6.6530 C   0  0  0  0  0  0  0  0  0  0  0  0
   11.2730   -8.1820    5.6080 C   0  0  0  0  0  0  0  0  0  0  0  0
   13.7730   -6.1000    4.5220 C   0  0  1  0  0  0  0  0  0  0  0  0
   13.0730   -5.2320    5.5850 C   0  0  0  0  0  0  0  0  0  0  0  0
   13.9160   -4.9380    6.8240 C   0  0  0  0  0  0  0  0  0  0  0  0
   15.1410   -4.0620    6.5400 C   0  0  0  0  0  0  0  0  0  0  0  0
   15.6090   -4.0770    5.0930 C   0  0  0  0  0  0  0  0  0  0  0  0
   15.5250   -5.7060    4.3900 S   0  0  0  0  0  0  0  0  0  0  0  0
   16.2970   -6.5810    5.2480 O   0  0  0  0  0  0  0  0  0  0  0  0
   15.8470   -5.5860    2.9820 O   0  0  0  0  0  0  0  0  0  0  0  0
   12.0850   -7.8790    2.5060 C   0  0  0  0  0  0  0  0  0  0  0  0
    8.0150   -9.3930   -1.3620 C   0  0  0  0  0  0  0  0  0  0  0  0
    6.7710   -9.7320   -0.6150 C   0  0  0  0  0  0  0  0  0  0  0  0
    5.5150   -9.7460   -1.4440 C   0  0  2  0  0  0  0  0  0  0  0  0
    5.2960  -10.8670   -2.3950 C   0  0  0  0  0  0  0  0  0  0  0  0
    4.0560  -11.4620   -2.4660 F   0  0  0  0  0  0  0  0  0  0  0  0
    6.2310  -11.8680   -2.5160 F   0  0  0  0  0  0  0  0  0  0  0  0
    3.6973   -8.4222   -2.7972 H   0  0  0  0  0  0  0  0  0  0  0  0
    4.7103   -7.9791   -4.2129 H   0  0  0  0  0  0  0  0  0  0  0  0
    3.7935   -9.5238   -4.2129 H   0  0  0  0  0  0  0  0  0  0  0  0
    7.0250  -10.1159   -4.3706 H   0  0  0  0  0  0  0  0  0  0  0  0
    6.7735   -8.3086   -4.1884 H   0  0  0  0  0  0  0  0  0  0  0  0
   10.9800   -8.5920   -2.1750 H   0  0  0  0  0  0  0  0  0  0  0  0
   11.6210   -8.2150   -0.5680 H   0  0  0  0  0  0  0  0  0  0  0  0
   13.7818  -10.0154    0.7281 H   0  0  0  0  0  0  0  0  0  0  0  0
   14.5766   -7.9945    4.8624 H   0  0  0  0  0  0  0  0  0  0  0  0
   14.3614   -8.7648    6.9233 H   0  0  0  0  0  0  0  0  0  0  0  0
   12.9668   -9.6496    8.7808 H   0  0  0  0  0  0  0  0  0  0  0  0
   10.4811   -9.5994    8.6140 H   0  0  0  0  0  0  0  0  0  0  0  0
    9.3939   -8.6670    6.5749 H   0  0  0  0  0  0  0  0  0  0  0  0
   10.7820   -7.7746    4.7120 H   0  0  0  0  0  0  0  0  0  0  0  0
   13.2278   -5.8090    3.6120 H   0  0  0  0  0  0  0  0  0  0  0  0
   12.8014   -4.2729    5.1198 H   0  0  0  0  0  0  0  0  0  0  0  0
   12.2014   -5.8069    5.9312 H   0  0  0  0  0  0  0  0  0  0  0  0
   13.2829   -4.4219    7.5607 H   0  0  0  0  0  0  0  0  0  0  0  0
   14.2896   -5.9034    7.1960 H   0  0  0  0  0  0  0  0  0  0  0  0
   14.8909   -3.0251    6.8089 H   0  0  0  0  0  0  0  0  0  0  0  0
   15.9657   -4.4763    7.1384 H   0  0  0  0  0  0  0  0  0  0  0  0
   14.9699   -3.4019    4.5050 H   0  0  0  0  0  0  0  0  0  0  0  0
   16.6583   -3.7479    5.0694 H   0  0  0  0  0  0  0  0  0  0  0  0
   11.2784   -7.1822    2.7777 H   0  0  0  0  0  0  0  0  0  0  0  0
    6.8997  -10.7313   -0.1736 H   0  0  0  0  0  0  0  0  0  0  0  0
    6.6361   -8.9377    0.1339 H   0  0  0  0  0  0  0  0  0  0  0  0
    4.9724   -9.2853   -0.6054 H   0  0  0  0  0  0  0  0  0  0  0  0
  2  1  1  1
  2  3  1  0
  3  4  1  0
  4  5  2  0
  5  6  1  0
  6  7  1  0
  7  8  1  0
  8  9  2  0
  8 10  1  0
 10 11  1  0
 11 12  1  0
 12 13  2  0
 13 14  1  0
 14 15  1  0
 15 16  1  0
 16 17  2  0
 17 18  1  0
 18 19  2  0
 19 20  1  0
 20 21  2  0
 15 22  1  0
 22 23  1  0
 23 24  1  0
 24 25  1  0
 25 26  1  0
 26 27  1  0
 27 28  2  0
 27 29  2  0
 14 30  1  0
  7 31  2  0
 31 32  1  0
 32 33  1  0
 33 34  1  0
 34 35  1  0
 34 36  1  0
 33  2  1  0
 34  2  1  0
 31  4  1  0
 30 11  2  0
 21 16  1  0
 27 22  1  0
  1 37  1  0
  1 38  1  0
  1 39  1  0
  3 40  1  0
  3 41  1  0
  6 42  1  0
 10 43  1  0
 12 44  1  0
 15 45  1  1
 17 46  1  0
 18 47  1  0
 19 48  1  0
 20 49  1  0
 21 50  1  0
 22 51  1  6
 23 52  1  0
 23 53  1  0
 24 54  1  0
 24 55  1  0
 25 56  1  0
 25 57  1  0
 26 58  1  0
 26 59  1  0
 30 60  1  0
 32 61  1  0
 32 62  1  0
 33 63  1  1
M  END
>  <meeko>  (8) 
{"is_sidechain": [false], "free_energy": -9.471, "intermolecular_energy": -11.847, "internal_energy": -1.025}

$$$$
4rfm_ligand
     RDKit          3D

 63 68  0  0  0  0  0  0  0  0999 V2000
    4.4920   -8.8990   -3.3940 C   0  0  0  0  0  0  0  0  0  0  0  0
    5.7850   -9.5060   -2.9270 C   0  0  1  0  0  0  0  0  0  0  0  0
    6.9990   -9.1470   -3.7710 C   0  0  0  0  0  0  0  0  0  0  0  0
    8.2610   -8.9680   -2.9920 C   0  0  0  0  0  0  0  0  0  0  0  0
    9.3820   -8.5230   -3.5590 N   0  0  0  0  0  0  0  0  0  0  0  0
   10.2500   -8.4720   -2.5380 N   0  0  0  0  0  0  0  0  0  0  0  0
    9.7400   -8.8920   -1.3320 C   0  0  0  0  0  0  0  0  0  0  0  0
   10.5860   -8.8820   -0.1590 C   0  0  0  0  0  0  0  0  0  0  0  0
   10.1080   -9.1060    0.9500 O   0  0  0  0  0  0  0  0  0  0  0  0
   11.9120   -8.5830   -0.3930 N   0  0  0  0  0  0  0  0  0  0  0  0
   12.9090   -8.5520    0.5660 C   0  0  0  0  0  0  0  0  0  0  0  0
   14.3010   -8.6230    0.3440 C   0  0  0  0  0  0  0  0  0  0  0  0
   15.0050   -8.5690    1.4760 N   0  0  0  0  0  0  0  0  0  0  0  0
   14.0630   -8.4830    2.4410 N   0  0  0  0  0  0  0  0  0  0  0  0
   14.4830   -8.3710    3.8570 C   0  0  2  0  0  0  0  0  0  0  0  0
   15.4180   -9.5180    4.2410 C   0  0  0  0  0  0  0  0  0  0  0  0
   15.0200  -10.8420    3.9870 C   0  0  0  0  0  0  0  0  0  0  0  0
   15.8480  -11.9220    4.3040 C   0  0  0  0  0  0  0  0  0  0  0  0
   17.0900  -11.7000    4.8890 C   0  0  0  0  0  0  0  0  0  0  0  0
   17.5010  -10.3990    5.1610 C   0  0  0  0  0  0  0  0  0  0  0  0
   16.6730   -9.3170    4.8420 C   0  0  0  0  0  0  0  0  0  0  0  0
   13.2770   -8.0920    4.7890 C   0  0  1  0  0  0  0  0  0  0  0  0
   13.0720   -9.0050    6.0140 C   0  0  0  0  0  0  0  0  0  0  0  0
   13.7280   -8.5040    7.2990 C   0  0  0  0  0  0  0  0  0  0  0  0
   13.1140   -7.2070    7.8360 C   0  0  0  0  0  0  0  0  0  0  0  0
   12.3770   -6.3760    6.7970 C   0  0  0  0  0  0  0  0  0  0  0  0
   13.2360   -6.3510    5.2430 S   0  0  0  0  0  0  0  0  0  0  0  0
   14.5790   -5.8750    5.5060 O   0  0  0  0  0  0  0  0  0  0  0  0
   12.3870   -5.6650    4.2900 O   0  0  0  0  0  0  0  0  0  0  0  0
   12.7920   -8.4520    1.9300 C   0  0  0  0  0  0  0  0  0  0  0  0
    8.4160   -9.2110   -1.6030 C   0  0  0  0  0  0  0  0  0  0  0  0
    7.2950   -9.6730   -0.7340 C   0  0  0  0  0  0  0  0  0  0  0  0
    5.9600   -9.7760   -1.4200 C   0  0  2  0  0  0  0  0  0  0  0  0
    5.7290  -10.8900   -2.3760 C   0  0  0  0  0  0  0  0  0  0  0  0
    4.5430  -11.5880   -2.3290 F   0  0  0  0  0  0  0  0  0  0  0  0
    6.7240  -11.8050   -2.6310 F   0  0  0  0  0  0  0  0  0  0  0  0
    3.8848   -8.6139   -2.5222 H   0  0  0  0  0  0  0  0  0  0  0  0
    4.7041   -8.0064   -4.0008 H   0  0  0  0  0  0  0  0  0  0  0  0
    3.9407   -9.6324   -4.0008 H   0  0  0  0  0  0  0  0  0  0  0  0
    7.1584   -9.9514   -4.5041 H   0  0  0  0  0  0  0  0  0  0  0  0
    6.7793   -8.1766   -4.2402 H   0  0  0  0  0  0  0  0  0  0  0  0
   11.1940   -8.1410   -2.7110 H   0  0  0  0  0  0  0  0  0  0  0  0
   12.1910   -8.3070   -1.3210 H   0  0  0  0  0  0  0  0  0  0  0  0
   14.7558   -8.7130   -0.6535 H   0  0  0  0  0  0  0  0  0  0  0  0
   15.1068   -7.4764    4.0001 H   0  0  0  0  0  0  0  0  0  0  0  0
   14.0376  -11.0316    3.5298 H   0  0  0  0  0  0  0  0  0  0  0  0
   15.5170  -12.9491    4.0906 H   0  0  0  0  0  0  0  0  0  0  0  0
   17.7444  -12.5491    5.1355 H   0  0  0  0  0  0  0  0  0  0  0  0
   18.4805  -10.2202    5.6286 H   0  0  0  0  0  0  0  0  0  0  0  0
   17.0091   -8.2936    5.0648 H   0  0  0  0  0  0  0  0  0  0  0  0
   12.4101   -8.3636    4.1687 H   0  0  0  0  0  0  0  0  0  0  0  0
   11.9910   -9.0985    6.1948 H   0  0  0  0  0  0  0  0  0  0  0  0
   13.5542   -9.9636    5.7718 H   0  0  0  0  0  0  0  0  0  0  0  0
   13.6241   -9.2827    8.0689 H   0  0  0  0  0  0  0  0  0  0  0  0
   14.7801   -8.2884    7.0611 H   0  0  0  0  0  0  0  0  0  0  0  0
   12.4026   -7.4688    8.6331 H   0  0  0  0  0  0  0  0  0  0  0  0
   13.9524   -6.5894    8.1906 H   0  0  0  0  0  0  0  0  0  0  0  0
   11.3755   -6.8043    6.6435 H   0  0  0  0  0  0  0  0  0  0  0  0
   12.3121   -5.3427    7.1687 H   0  0  0  0  0  0  0  0  0  0  0  0
   11.8572   -8.3639    2.5030 H   0  0  0  0  0  0  0  0  0  0  0  0
    7.5547  -10.6673   -0.3417 H   0  0  0  0  0  0  0  0  0  0  0  0
    7.1797   -8.9106    0.0505 H   0  0  0  0  0  0  0  0  0  0  0  0
    5.4786   -9.3821   -0.5128 H   0  0  0  0  0  0  0  0  0  0  0  0
  2  1  1  1
  2  3  1  0
  3  4  1  0
  4  5  2  0
  5  6  1  0
  6  7  1  0
  7  8  1  0
  8  9  2  0
  8 10  1  0
 10 11  1  0
 11 12  1  0
 12 13  2  0
 13 14  1  0
 14 15  1  0
 15 16  1  0
 16 17  2  0
 17 18  1  0
 18 19  2  0
 19 20  1  0
 20 21  2  0
 15 22  1  0
 22 23  1  0
 23 24  1  0
 24 25  1  0
 25 26  1  0
 26 27  1  0
 27 28  2  0
 27 29  2  0
 14 30  1  0
  7 31  2  0
 31 32  1  0
 32 33  1  0
 33 34  1  0
 34 35  1  0
 34 36  1  0
 33  2  1  0
 34  2  1  0
 31  4  1  0
 30 11  2  0
 21 16  1  0
 27 22  1  0
  1 37  1  0
  1 38  1  0
  1 39  1  0
  3 40  1  0
  3 41  1  0
  6 42  1  0
 10 43  1  0
 12 44  1  0
 15 45  1  6
 17 46  1  0
 18 47  1  0
 19 48  1  0
 20 49  1  0
 21 50  1  0
 22 51  1  6
 23 52  1  0
 23 53  1  0
 24 54  1  0
 24 55  1  0
 25 56  1  0
 25 57  1  0
 26 58  1  0
 26 59  1  0
 30 60  1  0
 32 61  1  0
 32 62  1  0
 33 63  1  1
M  END
>  <meeko>  (9) 
{"is_sidechain": [false], "free_energy": -9.341, "intermolecular_energy": -11.833, "internal_energy": -0.872}

$$$$
