2xbv_ligand
     RDKit          3D

 57 60  0  0  0  0  0  0  0  0999 V2000
   15.2780    0.0380   -1.7350 O   0  0  0  0  0  0  0  0  0  0  0  0
   16.3320    0.5120   -2.1450 C   0  0  0  0  0  0  0  0  0  0  0  0
   17.4910    0.6320   -1.4080 N   0  0  0  0  0  0  0  0  0  0  0  0
   17.7140    0.2800   -0.0770 C   0  0  0  0  0  0  0  0  0  0  0  0
   18.2290   -0.9440    0.3330 C   0  0  0  0  0  0  0  0  0  0  0  0
   18.4040   -1.1850    1.6990 C   0  0  0  0  0  0  0  0  0  0  0  0
   18.0610   -0.1990    2.6120 C   0  0  0  0  0  0  0  0  0  0  0  0
   18.2590   -0.4510    4.2960 Cl  0  0  0  0  0  0  0  0  0  0  0  0
   17.5530    0.9910    2.1210 C   0  0  0  0  0  0  0  0  0  0  0  0
   17.3720    1.2480    0.8010 N   0  0  0  0  0  0  0  0  0  0  0  0
   16.4910    1.0390   -3.5660 C   0  0  1  0  0  0  0  0  0  0  0  0
   16.5220   -0.0580   -4.6400 C   0  0  0  0  0  0  0  0  0  0  0  0
   15.4350    0.2750   -5.5770 N   0  0  0  0  0  0  0  0  0  0  0  0
   15.6820   -0.1780   -6.9600 C   0  0  0  0  0  0  0  0  0  0  0  0
   15.2930   -1.6300   -7.2910 C   0  0  0  0  0  0  0  0  0  0  0  0
   15.9520   -2.0670   -8.3940 F   0  0  0  0  0  0  0  0  0  0  0  0
   15.6100   -2.4660   -6.2730 F   0  0  0  0  0  0  0  0  0  0  0  0
   15.2260    1.7140   -5.4720 C   0  0  0  0  0  0  0  0  0  0  0  0
   15.3100    1.9340   -3.9700 C   0  0  2  0  0  0  0  0  0  0  0  0
   15.5340    3.3990   -3.6400 C   0  0  0  0  0  0  0  0  0  0  0  0
   14.9120    3.9410   -2.7310 O   0  0  0  0  0  0  0  0  0  0  0  0
   16.3930    4.0250   -4.5250 N   0  0  0  0  0  0  0  0  0  0  0  0
   16.8850    5.3440   -4.4130 C   0  0  0  0  0  0  0  0  0  0  0  0
   16.3920    6.2870   -5.3170 C   0  0  0  0  0  0  0  0  0  0  0  0
   16.8250    7.6210   -5.2700 C   0  0  0  0  0  0  0  0  0  0  0  0
   17.7720    8.0580   -4.3310 C   0  0  0  0  0  0  0  0  0  0  0  0
   18.2250    9.4350   -4.2790 N   0  0  0  0  0  0  0  0  0  0  0  0
   17.5520   10.3800   -3.5000 C   0  0  0  0  0  0  0  0  0  0  0  0
   17.9260   11.6630   -3.4300 C   0  0  0  0  0  0  0  0  0  0  0  0
   19.0640   12.1240   -4.1710 C   0  0  0  0  0  0  0  0  0  0  0  0
   19.7530   11.2700   -4.9310 C   0  0  0  0  0  0  0  0  0  0  0  0
   19.3510    9.8380   -5.0420 C   0  0  0  0  0  0  0  0  0  0  0  0
   20.0150    9.1410   -5.8090 O   0  0  0  0  0  0  0  0  0  0  0  0
   18.2860    7.0930   -3.4540 C   0  0  0  0  0  0  0  0  0  0  0  0
   17.8560    5.7620   -3.5020 C   0  0  0  0  0  0  0  0  0  0  0  0
   18.4780    4.8940   -2.6920 F   0  0  0  0  0  0  0  0  0  0  0  0
   18.3320    0.9960   -1.8590 H   0  0  0  0  0  0  0  0  0  0  0  0
   18.4953   -1.7128   -0.4073 H   0  0  0  0  0  0  0  0  0  0  0  0
   18.8096   -2.1468    2.0460 H   0  0  0  0  0  0  0  0  0  0  0  0
   17.2799    1.7745    2.8432 H   0  0  0  0  0  0  0  0  0  0  0  0
   17.4504    1.5760   -3.5323 H   0  0  0  0  0  0  0  0  0  0  0  0
   17.4911   -0.0586   -5.1605 H   0  0  0  0  0  0  0  0  0  0  0  0
   16.3910   -1.0592   -4.2035 H   0  0  0  0  0  0  0  0  0  0  0  0
   15.1141    0.4811   -7.6332 H   0  0  0  0  0  0  0  0  0  0  0  0
   16.7736   -0.1345   -7.0881 H   0  0  0  0  0  0  0  0  0  0  0  0
   14.2065   -1.6348   -7.4627 H   0  0  0  0  0  0  0  0  0  0  0  0
   16.0114    2.2722   -6.0027 H   0  0  0  0  0  0  0  0  0  0  0  0
   14.2829    2.0601   -5.9200 H   0  0  0  0  0  0  0  0  0  0  0  0
   14.3880    1.6798   -3.4266 H   0  0  0  0  0  0  0  0  0  0  0  0
   16.5060    3.5820   -5.4300 H   0  0  0  0  0  0  0  0  0  0  0  0
   15.6558    5.9807   -6.0747 H   0  0  0  0  0  0  0  0  0  0  0  0
   16.4110    8.3437   -5.9886 H   0  0  0  0  0  0  0  0  0  0  0  0
   16.6764   10.0550   -2.9188 H   0  0  0  0  0  0  0  0  0  0  0  0
   17.3589   12.3661   -2.8022 H   0  0  0  0  0  0  0  0  0  0  0  0
   19.3685   13.1794   -4.1132 H   0  0  0  0  0  0  0  0  0  0  0  0
   20.6329   11.6287   -5.4853 H   0  0  0  0  0  0  0  0  0  0  0  0
   19.0431    7.3879   -2.7125 H   0  0  0  0  0  0  0  0  0  0  0  0
  1  2  2  0
  2  3  1  0
  3  4  1  0
  4  5  2  0
  5  6  1  0
  6  7  2  0
  7  8  1  0
  7  9  1  0
  9 10  2  0
  2 11  1  0
 11 12  1  0
 12 13  1  0
 13 14  1  0
 14 15  1  0
 15 16  1  0
 15 17  1  0
 13 18  1  0
 18 19  1  0
 19 20  1  0
 20 21  2  0
 20 22  1  0
 22 23  1  0
 23 24  2  0
 24 25  1  0
 25 26  2  0
 26 27  1  0
 27 28  1  0
 28 29  2  0
 29 30  1  0
 30 31  2  0
 31 32  1  0
 32 33  2  0
 26 34  1  0
 34 35  2  0
 35 36  1  0
 10  4  1  0
 19 11  1  0
 35 23  1  0
 32 27  1  0
  3 37  1  0
  5 38  1  0
  6 39  1  0
  9 40  1  0
 11 41  1  1
 12 42  1  0
 12 43  1  0
 14 44  1  0
 14 45  1  0
 15 46  1  0
 18 47  1  0
 18 48  1  0
 19 49  1  1
 22 50  1  0
 24 51  1  0
 25 52  1  0
 28 53  1  0
 29 54  1  0
 30 55  1  0
 31 56  1  0
 34 57  1  0
M  END
>  <meeko>  (1) 
{"is_sidechain": [false], "free_energy": -7.668, "intermolecular_energy": -10.805, "internal_energy": -1.436}

$$$$
2xbv_ligand
     RDKit          3D

 57 60  0  0  0  0  0  0  0  0999 V2000
   14.9460    4.4650   -3.1430 O   0  0  0  0  0  0  0  0  0  0  0  0
   15.5420    3.7560   -3.9460 C   0  0  0  0  0  0  0  0  0  0  0  0
   16.5820    4.1670   -4.7530 N   0  0  0  0  0  0  0  0  0  0  0  0
   17.1530    5.4350   -4.8530 C   0  0  0  0  0  0  0  0  0  0  0  0
   16.5440    6.5230   -5.4660 C   0  0  0  0  0  0  0  0  0  0  0  0
   17.2180    7.7460   -5.5080 C   0  0  0  0  0  0  0  0  0  0  0  0
   18.4780    7.8470   -4.9370 C   0  0  0  0  0  0  0  0  0  0  0  0
   19.3410    9.3280   -4.9660 Cl  0  0  0  0  0  0  0  0  0  0  0  0
   19.0150    6.7170   -4.3480 C   0  0  0  0  0  0  0  0  0  0  0  0
   18.3810    5.5190   -4.2950 N   0  0  0  0  0  0  0  0  0  0  0  0
   15.1940    2.2870   -4.1530 C   0  0  1  0  0  0  0  0  0  0  0  0
   14.8670    1.9200   -5.6080 C   0  0  0  0  0  0  0  0  0  0  0  0
   15.8050    0.8400   -5.9630 N   0  0  0  0  0  0  0  0  0  0  0  0
   15.2780   -0.0950   -6.9770 C   0  0  0  0  0  0  0  0  0  0  0  0
   15.8350   -1.5300   -6.9470 C   0  0  0  0  0  0  0  0  0  0  0  0
   15.2340   -2.2590   -5.9720 F   0  0  0  0  0  0  0  0  0  0  0  0
   15.6130   -2.1660   -8.1220 F   0  0  0  0  0  0  0  0  0  0  0  0
   16.1720    0.1850   -4.7140 C   0  0  0  0  0  0  0  0  0  0  0  0
   16.3710    1.3720   -3.7840 C   0  0  2  0  0  0  0  0  0  0  0  0
   16.3570    0.9400   -2.3280 C   0  0  0  0  0  0  0  0  0  0  0  0
   15.3220    0.5530   -1.7970 O   0  0  0  0  0  0  0  0  0  0  0  0
   17.5700    1.1430   -1.6960 N   0  0  0  0  0  0  0  0  0  0  0  0
   17.9030    0.7350   -0.3850 C   0  0  0  0  0  0  0  0  0  0  0  0
   17.9760   -0.6370   -0.1430 C   0  0  0  0  0  0  0  0  0  0  0  0
   18.3060   -1.1250    1.1310 C   0  0  0  0  0  0  0  0  0  0  0  0
   18.5610   -0.2640    2.2090 C   0  0  0  0  0  0  0  0  0  0  0  0
   18.9000   -0.7620    3.5280 N   0  0  0  0  0  0  0  0  0  0  0  0
   17.9940   -1.5440    4.2500 C   0  0  0  0  0  0  0  0  0  0  0  0
   18.2580   -2.0170    5.4740 C   0  0  0  0  0  0  0  0  0  0  0  0
   19.5140   -1.7300    6.1030 C   0  0  0  0  0  0  0  0  0  0  0  0
   20.4240   -0.9910    5.4650 C   0  0  0  0  0  0  0  0  0  0  0  0
   20.1530   -0.4360    4.1070 C   0  0  0  0  0  0  0  0  0  0  0  0
   21.0300    0.2780    3.6230 O   0  0  0  0  0  0  0  0  0  0  0  0
   18.4460    1.1110    1.9610 C   0  0  0  0  0  0  0  0  0  0  0  0
   18.1160    1.5990    0.6910 C   0  0  0  0  0  0  0  0  0  0  0  0
   17.9320    2.9210    0.5770 F   0  0  0  0  0  0  0  0  0  0  0  0
   17.0460    3.4840   -5.3530 H   0  0  0  0  0  0  0  0  0  0  0  0
   15.5438    6.4227   -5.9126 H   0  0  0  0  0  0  0  0  0  0  0  0
   16.7542    8.6198   -5.9889 H   0  0  0  0  0  0  0  0  0  0  0  0
   20.0149    6.7941   -3.8960 H   0  0  0  0  0  0  0  0  0  0  0  0
   14.3137    2.1414   -3.5097 H   0  0  0  0  0  0  0  0  0  0  0  0
   13.8278    1.5693   -5.6916 H   0  0  0  0  0  0  0  0  0  0  0  0
   14.9686    2.7853   -6.2795 H   0  0  0  0  0  0  0  0  0  0  0  0
   14.1884   -0.1570   -6.8395 H   0  0  0  0  0  0  0  0  0  0  0  0
   15.5948    0.3189   -7.9457 H   0  0  0  0  0  0  0  0  0  0  0  0
   16.9155   -1.4469   -6.7585 H   0  0  0  0  0  0  0  0  0  0  0  0
   15.3668   -0.4733   -4.3558 H   0  0  0  0  0  0  0  0  0  0  0  0
   17.0536   -0.4676   -4.7967 H   0  0  0  0  0  0  0  0  0  0  0  0
   17.3426    1.8748   -3.8986 H   0  0  0  0  0  0  0  0  0  0  0  0
   18.1910    1.8220   -2.1230 H   0  0  0  0  0  0  0  0  0  0  0  0
   17.7726   -1.3447   -0.9602 H   0  0  0  0  0  0  0  0  0  0  0  0
   18.3663   -2.2120    1.2885 H   0  0  0  0  0  0  0  0  0  0  0  0
   17.0221   -1.7809    3.7926 H   0  0  0  0  0  0  0  0  0  0  0  0
   17.5089   -2.6279    5.9990 H   0  0  0  0  0  0  0  0  0  0  0  0
   19.7273   -2.1183    7.1099 H   0  0  0  0  0  0  0  0  0  0  0  0
   21.3907   -0.7876    5.9489 H   0  0  0  0  0  0  0  0  0  0  0  0
   18.6188    1.8221    2.7823 H   0  0  0  0  0  0  0  0  0  0  0  0
  1  2  2  0
  2  3  1  0
  3  4  1  0
  4  5  2  0
  5  6  1  0
  6  7  2  0
  7  8  1  0
  7  9  1  0
  9 10  2  0
  2 11  1  0
 11 12  1  0
 12 13  1  0
 13 14  1  0
 14 15  1  0
 15 16  1  0
 15 17  1  0
 13 18  1  0
 18 19  1  0
 19 20  1  0
 20 21  2  0
 20 22  1  0
 22 23  1  0
 23 24  2  0
 24 25  1  0
 25 26  2  0
 26 27  1  0
 27 28  1  0
 28 29  2  0
 29 30  1  0
 30 31  2  0
 31 32  1  0
 32 33  2  0
 26 34  1  0
 34 35  2  0
 35 36  1  0
 10  4  1  0
 19 11  1  0
 35 23  1  0
 32 27  1  0
  3 37  1  0
  5 38  1  0
  6 39  1  0
  9 40  1  0
 11 41  1  1
 12 42  1  0
 12 43  1  0
 14 44  1  0
 14 45  1  0
 15 46  1  0
 18 47  1  0
 18 48  1  0
 19 49  1  6
 22 50  1  0
 24 51  1  0
 25 52  1  0
 28 53  1  0
 29 54  1  0
 30 55  1  0
 31 56  1  0
 34 57  1  0
M  END
>  <meeko>  (2) 
{"is_sidechain": [false], "free_energy": -7.507, "intermolecular_energy": -10.947, "internal_energy": -1.068}

$$$$
2xbv_ligand
     RDKit          3D

 57 60  0  0  0  0  0  0  0  0999 V2000
   17.1410   -1.3230    3.3770 O   0  0  0  0  0  0  0  0  0  0  0  0
   18.0190   -0.9410    4.1430 C   0  0  0  0  0  0  0  0  0  0  0  0
   18.6700   -1.7320    5.0670 N   0  0  0  0  0  0  0  0  0  0  0  0
   18.4700   -3.0840    5.3440 C   0  0  0  0  0  0  0  0  0  0  0  0
   17.8210   -3.5640    6.4750 C   0  0  0  0  0  0  0  0  0  0  0  0
   17.6840   -4.9440    6.6480 C   0  0  0  0  0  0  0  0  0  0  0  0
   18.1990   -5.8020    5.6880 C   0  0  0  0  0  0  0  0  0  0  0  0
   18.0550   -7.5020    5.8580 Cl  0  0  0  0  0  0  0  0  0  0  0  0
   18.8340   -5.2440    4.5930 C   0  0  0  0  0  0  0  0  0  0  0  0
   18.9790   -3.9080    4.4040 N   0  0  0  0  0  0  0  0  0  0  0  0
   18.5120    0.5000    4.1650 C   0  0  1  0  0  0  0  0  0  0  0  0
   19.2830    0.8790    5.4380 C   0  0  0  0  0  0  0  0  0  0  0  0
   20.5970    1.3620    4.9760 N   0  0  0  0  0  0  0  0  0  0  0  0
   21.2100    2.3630    5.8690 C   0  0  0  0  0  0  0  0  0  0  0  0
   20.8910    3.8400    5.5730 C   0  0  0  0  0  0  0  0  0  0  0  0
   19.8070    4.2500    6.2780 F   0  0  0  0  0  0  0  0  0  0  0  0
   21.9260    4.6430    5.9180 F   0  0  0  0  0  0  0  0  0  0  0  0
   20.4020    1.8480    3.6150 C   0  0  0  0  0  0  0  0  0  0  0  0
   19.5030    0.7740    3.0230 C   0  0  2  0  0  0  0  0  0  0  0  0
   18.8290    1.2580    1.7520 C   0  0  0  0  0  0  0  0  0  0  0  0
   18.5600    2.4440    1.5960 O   0  0  0  0  0  0  0  0  0  0  0  0
   18.4790    0.2250    0.9020 N   0  0  0  0  0  0  0  0  0  0  0  0
   17.9480    0.3630   -0.4000 C   0  0  0  0  0  0  0  0  0  0  0  0
   16.5620    0.2700   -0.5350 C   0  0  0  0  0  0  0  0  0  0  0  0
   15.9540    0.4030   -1.7940 C   0  0  0  0  0  0  0  0  0  0  0  0
   16.7060    0.6180   -2.9590 C   0  0  0  0  0  0  0  0  0  0  0  0
   16.0840    0.7520   -4.2620 N   0  0  0  0  0  0  0  0  0  0  0  0
   16.1750   -0.2740   -5.2070 C   0  0  0  0  0  0  0  0  0  0  0  0
   15.6270   -0.1910   -6.4250 C   0  0  0  0  0  0  0  0  0  0  0  0
   14.9060    0.9860   -6.8120 C   0  0  0  0  0  0  0  0  0  0  0  0
   14.7790    2.0010   -5.9550 C   0  0  0  0  0  0  0  0  0  0  0  0
   15.3920    1.9440   -4.5960 C   0  0  0  0  0  0  0  0  0  0  0  0
   15.2670    2.9500   -3.8980 O   0  0  0  0  0  0  0  0  0  0  0  0
   18.0990    0.6700   -2.8130 C   0  0  0  0  0  0  0  0  0  0  0  0
   18.7060    0.5370   -1.5590 C   0  0  0  0  0  0  0  0  0  0  0  0
   20.0460    0.4990   -1.5330 F   0  0  0  0  0  0  0  0  0  0  0  0
   19.4240   -1.3280    5.6250 H   0  0  0  0  0  0  0  0  0  0  0  0
   17.4200   -2.8663    7.2250 H   0  0  0  0  0  0  0  0  0  0  0  0
   17.1733   -5.3452    7.5358 H   0  0  0  0  0  0  0  0  0  0  0  0
   19.2453   -5.9226    3.8312 H   0  0  0  0  0  0  0  0  0  0  0  0
   17.5850    1.0866    4.0847 H   0  0  0  0  0  0  0  0  0  0  0  0
   18.7533    1.6721    5.9861 H   0  0  0  0  0  0  0  0  0  0  0  0
   19.3813    0.0248    6.1241 H   0  0  0  0  0  0  0  0  0  0  0  0
   20.8719    2.1476    6.8933 H   0  0  0  0  0  0  0  0  0  0  0  0
   22.2944    2.2643    5.7134 H   0  0  0  0  0  0  0  0  0  0  0  0
   20.6986    3.9118    4.4923 H   0  0  0  0  0  0  0  0  0  0  0  0
   19.9084    2.8310    3.6083 H   0  0  0  0  0  0  0  0  0  0  0  0
   21.3390    1.9989    3.0589 H   0  0  0  0  0  0  0  0  0  0  0  0
   20.0368   -0.1342    2.7065 H   0  0  0  0  0  0  0  0  0  0  0  0
   18.3940   -0.6940    1.3230 H   0  0  0  0  0  0  0  0  0  0  0  0
   15.9394    0.0907    0.3539 H   0  0  0  0  0  0  0  0  0  0  0  0
   14.8585    0.3368   -1.8688 H   0  0  0  0  0  0  0  0  0  0  0  0
   16.7212   -1.1900   -4.9375 H   0  0  0  0  0  0  0  0  0  0  0  0
   15.7301   -1.0281   -7.1311 H   0  0  0  0  0  0  0  0  0  0  0  0
   14.4579    1.0524   -7.8144 H   0  0  0  0  0  0  0  0  0  0  0  0
   14.2128    2.8948   -6.2557 H   0  0  0  0  0  0  0  0  0  0  0  0
   18.7284    0.8185   -3.7028 H   0  0  0  0  0  0  0  0  0  0  0  0
  1  2  2  0
  2  3  1  0
  3  4  1  0
  4  5  2  0
  5  6  1  0
  6  7  2  0
  7  8  1  0
  7  9  1  0
  9 10  2  0
  2 11  1  0
 11 12  1  0
 12 13  1  0
 13 14  1  0
 14 15  1  0
 15 16  1  0
 15 17  1  0
 13 18  1  0
 18 19  1  0
 19 20  1  0
 20 21  2  0
 20 22  1  0
 22 23  1  0
 23 24  2  0
 24 25  1  0
 25 26  2  0
 26 27  1  0
 27 28  1  0
 28 29  2  0
 29 30  1  0
 30 31  2  0
 31 32  1  0
 32 33  2  0
 26 34  1  0
 34 35  2  0
 35 36  1  0
 10  4  1  0
 19 11  1  0
 35 23  1  0
 32 27  1  0
  3 37  1  0
  5 38  1  0
  6 39  1  0
  9 40  1  0
 11 41  1  6
 12 42  1  0
 12 43  1  0
 14 44  1  0
 14 45  1  0
 15 46  1  0
 18 47  1  0
 18 48  1  0
 19 49  1  6
 22 50  1  0
 24 51  1  0
 25 52  1  0
 28 53  1  0
 29 54  1  0
 30 55  1  0
 31 56  1  0
 34 57  1  0
M  END
>  <meeko>  (3) 
{"is_sidechain": [false], "free_energy": -7.478, "intermolecular_energy": -10.358, "internal_energy": -1.616}

$$$$
2xbv_ligand
     RDKit          3D

 57 60  0  0  0  0  0  0  0  0999 V2000
   22.0140    0.8760    2.7860 O   0  0  0  0  0  0  0  0  0  0  0  0
   20.8260    0.7990    3.0790 C   0  0  0  0  0  0  0  0  0  0  0  0
   19.9950    1.8720    3.3220 N   0  0  0  0  0  0  0  0  0  0  0  0
   20.3070    3.2320    3.3130 C   0  0  0  0  0  0  0  0  0  0  0  0
   20.5300    3.9760    2.1610 C   0  0  0  0  0  0  0  0  0  0  0  0
   20.8410    5.3340    2.2780 C   0  0  0  0  0  0  0  0  0  0  0  0
   20.9200    5.9060    3.5380 C   0  0  0  0  0  0  0  0  0  0  0  0
   21.2990    7.5670    3.7290 Cl  0  0  0  0  0  0  0  0  0  0  0  0
   20.6870    5.0950    4.6340 C   0  0  0  0  0  0  0  0  0  0  0  0
   20.3850    3.7750    4.5470 N   0  0  0  0  0  0  0  0  0  0  0  0
   20.1040   -0.5350    3.2130 C   0  0  1  0  0  0  0  0  0  0  0  0
   20.0840   -1.0960    4.6420 C   0  0  0  0  0  0  0  0  0  0  0  0
   18.6610   -1.2920    4.9710 N   0  0  0  0  0  0  0  0  0  0  0  0
   18.4180   -2.3870    5.9300 C   0  0  0  0  0  0  0  0  0  0  0  0
   17.7110   -3.6400    5.3810 C   0  0  0  0  0  0  0  0  0  0  0  0
   18.6140   -4.5300    4.8970 F   0  0  0  0  0  0  0  0  0  0  0  0
   17.0040   -4.2680    6.3520 F   0  0  0  0  0  0  0  0  0  0  0  0
   17.9660   -1.4740    3.7030 C   0  0  0  0  0  0  0  0  0  0  0  0
   18.6210   -0.4140    2.8310 C   0  0  2  0  0  0  0  0  0  0  0  0
   18.3620   -0.6740    1.3580 C   0  0  0  0  0  0  0  0  0  0  0  0
   18.6230   -1.7620    0.8560 O   0  0  0  0  0  0  0  0  0  0  0  0
   17.9270    0.4510    0.6820 N   0  0  0  0  0  0  0  0  0  0  0  0
   17.4940    0.4980   -0.6620 C   0  0  0  0  0  0  0  0  0  0  0  0
   16.1180    0.4630   -0.8900 C   0  0  0  0  0  0  0  0  0  0  0  0
   15.6040    0.5120   -2.1950 C   0  0  0  0  0  0  0  0  0  0  0  0
   16.4450    0.5840   -3.3180 C   0  0  0  0  0  0  0  0  0  0  0  0
   15.9210    0.6310   -4.6690 N   0  0  0  0  0  0  0  0  0  0  0  0
   15.9700   -0.4960   -5.4950 C   0  0  0  0  0  0  0  0  0  0  0  0
   15.5090   -0.4960   -6.7510 C   0  0  0  0  0  0  0  0  0  0  0  0
   14.9320    0.6920   -7.3080 C   0  0  0  0  0  0  0  0  0  0  0  0
   14.8510    1.8010   -6.5700 C   0  0  0  0  0  0  0  0  0  0  0  0
   15.3700    1.8380   -5.1720 C   0  0  0  0  0  0  0  0  0  0  0  0
   15.3010    2.9200   -4.5910 O   0  0  0  0  0  0  0  0  0  0  0  0
   17.8250    0.5790   -3.0760 C   0  0  0  0  0  0  0  0  0  0  0  0
   18.3380    0.5290   -1.7740 C   0  0  0  0  0  0  0  0  0  0  0  0
   19.6680    0.4280   -1.6490 F   0  0  0  0  0  0  0  0  0  0  0  0
   19.0050    1.7030    3.5100 H   0  0  0  0  0  0  0  0  0  0  0  0
   20.4628    3.5029    1.1702 H   0  0  0  0  0  0  0  0  0  0  0  0
   21.0211    5.9422    1.3793 H   0  0  0  0  0  0  0  0  0  0  0  0
   20.7502    5.5467    5.6350 H   0  0  0  0  0  0  0  0  0  0  0  0
   20.6717   -1.1986    2.5442 H   0  0  0  0  0  0  0  0  0  0  0  0
   20.6237   -2.0535    4.6862 H   0  0  0  0  0  0  0  0  0  0  0  0
   20.5762   -0.4162    5.3530 H   0  0  0  0  0  0  0  0  0  0  0  0
   19.3928   -2.7023    6.3305 H   0  0  0  0  0  0  0  0  0  0  0  0
   17.7285   -1.9694    6.6785 H   0  0  0  0  0  0  0  0  0  0  0  0
   17.0376   -3.2988    4.5809 H   0  0  0  0  0  0  0  0  0  0  0  0
   18.1308   -2.4832    3.2977 H   0  0  0  0  0  0  0  0  0  0  0  0
   16.8730   -1.3751    3.7772 H   0  0  0  0  0  0  0  0  0  0  0  0
   18.2304    0.6019    2.9901 H   0  0  0  0  0  0  0  0  0  0  0  0
   18.1400    1.3440    1.1130 H   0  0  0  0  0  0  0  0  0  0  0  0
   15.4275    0.3962   -0.0364 H   0  0  0  0  0  0  0  0  0  0  0  0
   14.5141    0.4935   -2.3424 H   0  0  0  0  0  0  0  0  0  0  0  0
   16.4065   -1.4230   -5.0948 H   0  0  0  0  0  0  0  0  0  0  0  0
   15.5730   -1.4109   -7.3583 H   0  0  0  0  0  0  0  0  0  0  0  0
   14.5566    0.6896   -8.3420 H   0  0  0  0  0  0  0  0  0  0  0  0
   14.3933    2.7040   -7.0003 H   0  0  0  0  0  0  0  0  0  0  0  0
   18.5206    0.6151   -3.9273 H   0  0  0  0  0  0  0  0  0  0  0  0
  1  2  2  0
  2  3  1  0
  3  4  1  0
  4  5  2  0
  5  6  1  0
  6  7  2  0
  7  8  1  0
  7  9  1  0
  9 10  2  0
  2 11  1  0
 11 12  1  0
 12 13  1  0
 13 14  1  0
 14 15  1  0
 15 16  1  0
 15 17  1  0
 13 18  1  0
 18 19  1  0
 19 20  1  0
 20 21  2  0
 20 22  1  0
 22 23  1  0
 23 24  2  0
 24 25  1  0
 25 26  2  0
 26 27  1  0
 27 28  1  0
 28 29  2  0
 29 30  1  0
 30 31  2  0
 31 32  1  0
 32 33  2  0
 26 34  1  0
 34 35  2  0
 35 36  1  0
 10  4  1  0
 19 11  1  0
 35 23  1  0
 32 27  1  0
  3 37  1  0
  5 38  1  0
  6 39  1  0
  9 40  1  0
 11 41  1  6
 12 42  1  0
 12 43  1  0
 14 44  1  0
 14 45  1  0
 15 46  1  0
 18 47  1  0
 18 48  1  0
 19 49  1  1
 22 50  1  0
 24 51  1  0
 25 52  1  0
 28 53  1  0
 29 54  1  0
 30 55  1  0
 31 56  1  0
 34 57  1  0
M  END
>  <meeko>  (4) 
{"is_sidechain": [false], "free_energy": -7.4, "intermolecular_energy": -10.227, "internal_energy": -1.638}

$$$$
2xbv_ligand
     RDKit          3D

 57 60  0  0  0  0  0  0  0  0999 V2000
   15.3320    4.6110   -2.4620 O   0  0  0  0  0  0  0  0  0  0  0  0
   16.3270    3.9070   -2.5930 C   0  0  0  0  0  0  0  0  0  0  0  0
   17.6210    4.3690   -2.7090 N   0  0  0  0  0  0  0  0  0  0  0  0
   18.0710    5.6890   -2.7280 C   0  0  0  0  0  0  0  0  0  0  0  0
   18.8230    6.2750   -1.7160 C   0  0  0  0  0  0  0  0  0  0  0  0
   19.2150    7.6100   -1.8450 C   0  0  0  0  0  0  0  0  0  0  0  0
   18.8440    8.3200   -2.9780 C   0  0  0  0  0  0  0  0  0  0  0  0
   19.3020    9.9600   -3.1780 Cl  0  0  0  0  0  0  0  0  0  0  0  0
   18.0940    7.6640   -3.9370 C   0  0  0  0  0  0  0  0  0  0  0  0
   17.7010    6.3700   -3.8340 N   0  0  0  0  0  0  0  0  0  0  0  0
   16.2490    2.3860   -2.6410 C   0  0  1  0  0  0  0  0  0  0  0  0
   15.6020    1.8330   -3.9190 C   0  0  0  0  0  0  0  0  0  0  0  0
   16.6020    0.9230   -4.5070 N   0  0  0  0  0  0  0  0  0  0  0  0
   16.0140   -0.1830   -5.2870 C   0  0  0  0  0  0  0  0  0  0  0  0
   15.6570    0.1210   -6.7540 C   0  0  0  0  0  0  0  0  0  0  0  0
   15.4070   -1.0250   -7.4370 F   0  0  0  0  0  0  0  0  0  0  0  0
   14.5460    0.8930   -6.8370 F   0  0  0  0  0  0  0  0  0  0  0  0
   17.4420    0.4660   -3.4060 C   0  0  0  0  0  0  0  0  0  0  0  0
   17.6470    1.7490   -2.6150 C   0  0  2  0  0  0  0  0  0  0  0  0
   18.1420    1.4570   -1.2100 C   0  0  0  0  0  0  0  0  0  0  0  0
   18.8780    2.2450   -0.6260 O   0  0  0  0  0  0  0  0  0  0  0  0
   17.7660    0.2050   -0.7570 N   0  0  0  0  0  0  0  0  0  0  0  0
   17.9730   -0.3060    0.5440 C   0  0  0  0  0  0  0  0  0  0  0  0
   18.8020   -1.4210    0.6660 C   0  0  0  0  0  0  0  0  0  0  0  0
   19.0650   -1.9860    1.9240 C   0  0  0  0  0  0  0  0  0  0  0  0
   18.4990   -1.4670    3.1000 C   0  0  0  0  0  0  0  0  0  0  0  0
   18.7640   -2.0480    4.4020 N   0  0  0  0  0  0  0  0  0  0  0  0
   17.9680   -3.0850    4.8970 C   0  0  0  0  0  0  0  0  0  0  0  0
   18.1670   -3.6440    6.0960 C   0  0  0  0  0  0  0  0  0  0  0  0
   19.2340   -3.1870    6.9370 C   0  0  0  0  0  0  0  0  0  0  0  0
   20.0340   -2.2020    6.5220 C   0  0  0  0  0  0  0  0  0  0  0  0
   19.8270   -1.5480    5.1960 C   0  0  0  0  0  0  0  0  0  0  0  0
   20.5800   -0.6130    4.9250 O   0  0  0  0  0  0  0  0  0  0  0  0
   17.6380   -0.3700    2.9570 C   0  0  0  0  0  0  0  0  0  0  0  0
   17.3750    0.1930    1.7030 C   0  0  0  0  0  0  0  0  0  0  0  0
   16.4620    1.1730    1.6560 F   0  0  0  0  0  0  0  0  0  0  0  0
   18.3870    3.6970   -2.7630 H   0  0  0  0  0  0  0  0  0  0  0  0
   19.1058    5.6951   -0.8251 H   0  0  0  0  0  0  0  0  0  0  0  0
   19.8113    8.0929   -1.0568 H   0  0  0  0  0  0  0  0  0  0  0  0
   17.7988    8.2247   -4.8362 H   0  0  0  0  0  0  0  0  0  0  0  0
   15.6417    2.1346   -1.7590 H   0  0  0  0  0  0  0  0  0  0  0  0
   14.6796    1.2850   -3.6764 H   0  0  0  0  0  0  0  0  0  0  0  0
   15.3239    2.6375   -4.6157 H   0  0  0  0  0  0  0  0  0  0  0  0
   16.7353   -1.0135   -5.2843 H   0  0  0  0  0  0  0  0  0  0  0  0
   15.0555   -0.4067   -4.7958 H   0  0  0  0  0  0  0  0  0  0  0  0
   16.5195    0.6484   -7.1875 H   0  0  0  0  0  0  0  0  0  0  0  0
   16.9303   -0.2985   -2.8029 H   0  0  0  0  0  0  0  0  0  0  0  0
   18.3787   -0.0113   -3.7298 H   0  0  0  0  0  0  0  0  0  0  0  0
   18.4171    2.4149   -3.0315 H   0  0  0  0  0  0  0  0  0  0  0  0
   17.5200   -0.4750   -1.4680 H   0  0  0  0  0  0  0  0  0  0  0  0
   19.2550   -1.8628   -0.2338 H   0  0  0  0  0  0  0  0  0  0  0  0
   19.7320   -2.8582    1.9904 H   0  0  0  0  0  0  0  0  0  0  0  0
   17.1420   -3.4576    4.2735 H   0  0  0  0  0  0  0  0  0  0  0  0
   17.5096   -4.4571    6.4376 H   0  0  0  0  0  0  0  0  0  0  0  0
   19.3935   -3.6473    7.9232 H   0  0  0  0  0  0  0  0  0  0  0  0
   20.8591   -1.8668    7.1676 H   0  0  0  0  0  0  0  0  0  0  0  0
   17.1586    0.0576    3.8499 H   0  0  0  0  0  0  0  0  0  0  0  0
  1  2  2  0
  2  3  1  0
  3  4  1  0
  4  5  2  0
  5  6  1  0
  6  7  2  0
  7  8  1  0
  7  9  1  0
  9 10  2  0
  2 11  1  0
 11 12  1  0
 12 13  1  0
 13 14  1  0
 14 15  1  0
 15 16  1  0
 15 17  1  0
 13 18  1  0
 18 19  1  0
 19 20  1  0
 20 21  2  0
 20 22  1  0
 22 23  1  0
 23 24  2  0
 24 25  1  0
 25 26  2  0
 26 27  1  0
 27 28  1  0
 28 29  2  0
 29 30  1  0
 30 31  2  0
 31 32  1  0
 32 33  2  0
 26 34  1  0
 34 35  2  0
 35 36  1  0
 10  4  1  0
 19 11  1  0
 35 23  1  0
 32 27  1  0
  3 37  1  0
  5 38  1  0
  6 39  1  0
  9 40  1  0
 11 41  1  1
 12 42  1  0
 12 43  1  0
 14 44  1  0
 14 45  1  0
 15 46  1  0
 18 47  1  0
 18 48  1  0
 19 49  1  6
 22 50  1  0
 24 51  1  0
 25 52  1  0
 28 53  1  0
 29 54  1  0
 30 55  1  0
 31 56  1  0
 34 57  1  0
M  END
>  <meeko>  (5) 
{"is_sidechain": [false], "free_energy": -7.282, "intermolecular_energy": -10.157, "internal_energy": -1.541}

$$$$
2xbv_ligand
     RDKit          3D

 57 60  0  0  0  0  0  0  0  0999 V2000
   22.0900    1.8620    3.8250 O   0  0  0  0  0  0  0  0  0  0  0  0
   20.8850    1.8230    3.6010 C   0  0  0  0  0  0  0  0  0  0  0  0
   20.0050    2.8670    3.7930 N   0  0  0  0  0  0  0  0  0  0  0  0
   20.2690    4.1450    4.2870 C   0  0  0  0  0  0  0  0  0  0  0  0
   20.1890    4.4980    5.6290 C   0  0  0  0  0  0  0  0  0  0  0  0
   20.4730    5.8130    6.0050 C   0  0  0  0  0  0  0  0  0  0  0  0
   20.8280    6.7350    5.0320 C   0  0  0  0  0  0  0  0  0  0  0  0
   21.1860    8.3600    5.4470 Cl  0  0  0  0  0  0  0  0  0  0  0  0
   20.8830    6.3040    3.7190 C   0  0  0  0  0  0  0  0  0  0  0  0
   20.6100    5.0330    3.3290 N   0  0  0  0  0  0  0  0  0  0  0  0
   20.1950    0.5750    3.0640 C   0  0  1  0  0  0  0  0  0  0  0  0
   20.2850   -0.6400    3.9970 C   0  0  0  0  0  0  0  0  0  0  0  0
   18.8920   -1.0490    4.2510 N   0  0  0  0  0  0  0  0  0  0  0  0
   18.7340   -2.4910    4.5190 C   0  0  0  0  0  0  0  0  0  0  0  0
   18.6640   -2.9150    5.9970 C   0  0  0  0  0  0  0  0  0  0  0  0
   19.1330   -1.9300    6.8040 F   0  0  0  0  0  0  0  0  0  0  0  0
   17.3870   -3.1710    6.3720 F   0  0  0  0  0  0  0  0  0  0  0  0
   18.1130   -0.5870    3.1090 C   0  0  0  0  0  0  0  0  0  0  0  0
   18.6870    0.8010    2.8770 C   0  0  2  0  0  0  0  0  0  0  0  0
   18.3300    1.3230    1.4960 C   0  0  0  0  0  0  0  0  0  0  0  0
   18.4480    2.5120    1.2230 O   0  0  0  0  0  0  0  0  0  0  0  0
   17.7770    0.3510    0.6820 N   0  0  0  0  0  0  0  0  0  0  0  0
   17.4540    0.4970   -0.6860 C   0  0  0  0  0  0  0  0  0  0  0  0
   16.1000    0.5390   -1.0200 C   0  0  0  0  0  0  0  0  0  0  0  0
   15.6940    0.6890   -2.3550 C   0  0  0  0  0  0  0  0  0  0  0  0
   16.6230    0.7890   -3.4030 C   0  0  0  0  0  0  0  0  0  0  0  0
   16.2100    0.9410   -4.7850 N   0  0  0  0  0  0  0  0  0  0  0  0
   16.1280    2.2080   -5.3710 C   0  0  0  0  0  0  0  0  0  0  0  0
   15.7410    2.3980   -6.6380 C   0  0  0  0  0  0  0  0  0  0  0  0
   15.3910    1.2780   -7.4610 C   0  0  0  0  0  0  0  0  0  0  0  0
   15.4520    0.0410   -6.9630 C   0  0  0  0  0  0  0  0  0  0  0  0
   15.8640   -0.2020   -5.5490 C   0  0  0  0  0  0  0  0  0  0  0  0
   15.8370   -1.3710   -5.1650 O   0  0  0  0  0  0  0  0  0  0  0  0
   17.9790    0.7070   -3.0570 C   0  0  0  0  0  0  0  0  0  0  0  0
   18.3840    0.5560   -1.7260 C   0  0  0  0  0  0  0  0  0  0  0  0
   19.6950    0.3870   -1.5050 F   0  0  0  0  0  0  0  0  0  0  0  0
   19.0260    2.7490    3.5270 H   0  0  0  0  0  0  0  0  0  0  0  0
   19.9056    3.7513    6.3854 H   0  0  0  0  0  0  0  0  0  0  0  0
   20.4157    6.1139    7.0615 H   0  0  0  0  0  0  0  0  0  0  0  0
   21.1644    7.0339    2.9457 H   0  0  0  0  0  0  0  0  0  0  0  0
   20.7242    0.3787    2.1199 H   0  0  0  0  0  0  0  0  0  0  0  0
   20.8424   -1.4554    3.5128 H   0  0  0  0  0  0  0  0  0  0  0  0
   20.8147   -0.3981    4.9302 H   0  0  0  0  0  0  0  0  0  0  0  0
   17.8038   -2.8205    4.0331 H   0  0  0  0  0  0  0  0  0  0  0  0
   19.6481   -2.9602    4.1263 H   0  0  0  0  0  0  0  0  0  0  0  0
   19.2790   -3.8216    6.0961 H   0  0  0  0  0  0  0  0  0  0  0  0
   18.2655   -1.2343    2.2328 H   0  0  0  0  0  0  0  0  0  0  0  0
   17.0265   -0.5951    3.2803 H   0  0  0  0  0  0  0  0  0  0  0  0
   18.2915    1.5694    3.5576 H   0  0  0  0  0  0  0  0  0  0  0  0
   17.3750   -0.4530    1.1510 H   0  0  0  0  0  0  0  0  0  0  0  0
   15.3418    0.4535   -0.2276 H   0  0  0  0  0  0  0  0  0  0  0  0
   14.6194    0.7293   -2.5865 H   0  0  0  0  0  0  0  0  0  0  0  0
   16.3930    3.0865   -4.7644 H   0  0  0  0  0  0  0  0  0  0  0  0
   15.6914    3.4171   -7.0491 H   0  0  0  0  0  0  0  0  0  0  0  0
   15.0725    1.4376   -8.5017 H   0  0  0  0  0  0  0  0  0  0  0  0
   15.1943   -0.8138   -7.6055 H   0  0  0  0  0  0  0  0  0  0  0  0
   18.7409    0.7625   -3.8485 H   0  0  0  0  0  0  0  0  0  0  0  0
  1  2  2  0
  2  3  1  0
  3  4  1  0
  4  5  2  0
  5  6  1  0
  6  7  2  0
  7  8  1  0
  7  9  1  0
  9 10  2  0
  2 11  1  0
 11 12  1  0
 12 13  1  0
 13 14  1  0
 14 15  1  0
 15 16  1  0
 15 17  1  0
 13 18  1  0
 18 19  1  0
 19 20  1  0
 20 21  2  0
 20 22  1  0
 22 23  1  0
 23 24  2  0
 24 25  1  0
 25 26  2  0
 26 27  1  0
 27 28  1  0
 28 29  2  0
 29 30  1  0
 30 31  2  0
 31 32  1  0
 32 33  2  0
 26 34  1  0
 34 35  2  0
 35 36  1  0
 10  4  1  0
 19 11  1  0
 35 23  1  0
 32 27  1  0
  3 37  1  0
  5 38  1  0
  6 39  1  0
  9 40  1  0
 11 41  1  6
 12 42  1  0
 12 43  1  0
 14 44  1  0
 14 45  1  0
 15 46  1  0
 18 47  1  0
 18 48  1  0
 19 49  1  1
 22 50  1  0
 24 51  1  0
 25 52  1  0
 28 53  1  0
 29 54  1  0
 30 55  1  0
 31 56  1  0
 34 57  1  0
M  END
>  <meeko>  (6) 
{"is_sidechain": [false], "free_energy": -7.11, "intermolecular_energy": -9.862, "internal_energy": -1.593}

$$$$
2xbv_ligand
     RDKit          3D

 57 60  0  0  0  0  0  0  0  0999 V2000
   20.6650   -3.4750    3.9690 O   0  0  0  0  0  0  0  0  0  0  0  0
   19.5120   -3.0560    3.9710 C   0  0  0  0  0  0  0  0  0  0  0  0
   18.3860   -3.8260    4.1710 N   0  0  0  0  0  0  0  0  0  0  0  0
   18.3020   -5.2020    4.3830 C   0  0  0  0  0  0  0  0  0  0  0  0
   18.3350   -6.1550    3.3720 C   0  0  0  0  0  0  0  0  0  0  0  0
   18.2390   -7.5080    3.7070 C   0  0  0  0  0  0  0  0  0  0  0  0
   18.1130   -7.8690    5.0400 C   0  0  0  0  0  0  0  0  0  0  0  0
   17.9910   -9.5170    5.4970 Cl  0  0  0  0  0  0  0  0  0  0  0  0
   18.0860   -6.8600    5.9860 C   0  0  0  0  0  0  0  0  0  0  0  0
   18.1770   -5.5400    5.6850 N   0  0  0  0  0  0  0  0  0  0  0  0
   19.1770   -1.5870    3.7490 C   0  0  1  0  0  0  0  0  0  0  0  0
   19.2650   -0.7260    5.0170 C   0  0  0  0  0  0  0  0  0  0  0  0
   20.2190    0.3510    4.6990 N   0  0  0  0  0  0  0  0  0  0  0  0
   19.9670    1.6060    5.4330 C   0  0  0  0  0  0  0  0  0  0  0  0
   21.0150    2.7220    5.2720 C   0  0  0  0  0  0  0  0  0  0  0  0
   20.4820    3.9320    5.5810 F   0  0  0  0  0  0  0  0  0  0  0  0
   22.0720    2.5240    6.0960 F   0  0  0  0  0  0  0  0  0  0  0  0
   20.1870    0.5160    3.2510 C   0  0  0  0  0  0  0  0  0  0  0  0
   20.1610   -0.9270    2.7710 C   0  0  2  0  0  0  0  0  0  0  0  0
   19.7130   -1.0180    1.3230 C   0  0  0  0  0  0  0  0  0  0  0  0
   20.0020   -1.9910    0.6350 O   0  0  0  0  0  0  0  0  0  0  0  0
   19.0750    0.1290    0.8850 N   0  0  0  0  0  0  0  0  0  0  0  0
   18.4450    0.3030   -0.3680 C   0  0  0  0  0  0  0  0  0  0  0  0
   17.0790    0.0280   -0.4380 C   0  0  0  0  0  0  0  0  0  0  0  0
   16.3760    0.1810   -1.6430 C   0  0  0  0  0  0  0  0  0  0  0  0
   17.0140    0.6000   -2.8220 C   0  0  0  0  0  0  0  0  0  0  0  0
   16.2940    0.7570   -4.0710 N   0  0  0  0  0  0  0  0  0  0  0  0
   16.3000   -0.2580   -5.0320 C   0  0  0  0  0  0  0  0  0  0  0  0
   15.6600   -0.1540   -6.2020 C   0  0  0  0  0  0  0  0  0  0  0  0
   14.9250    1.0350   -6.5190 C   0  0  0  0  0  0  0  0  0  0  0  0
   14.8760    2.0410   -5.6430 C   0  0  0  0  0  0  0  0  0  0  0  0
   15.5920    1.9610   -4.3360 C   0  0  0  0  0  0  0  0  0  0  0  0
   15.5340    2.9590   -3.6190 O   0  0  0  0  0  0  0  0  0  0  0  0
   18.3930    0.8360   -2.7460 C   0  0  0  0  0  0  0  0  0  0  0  0
   19.0950    0.6820   -1.5440 C   0  0  0  0  0  0  0  0  0  0  0  0
   20.4250    0.8320   -1.5940 F   0  0  0  0  0  0  0  0  0  0  0  0
   17.4720   -3.3730    4.2050 H   0  0  0  0  0  0  0  0  0  0  0  0
   18.4355   -5.8477    2.3206 H   0  0  0  0  0  0  0  0  0  0  0  0
   18.2631   -8.2783    2.9221 H   0  0  0  0  0  0  0  0  0  0  0  0
   17.9849   -7.1443    7.0438 H   0  0  0  0  0  0  0  0  0  0  0  0
   18.1441   -1.6161    3.3718 H   0  0  0  0  0  0  0  0  0  0  0  0
   18.2793   -0.3052    5.2646 H   0  0  0  0  0  0  0  0  0  0  0  0
   19.5910   -1.3148    5.8871 H   0  0  0  0  0  0  0  0  0  0  0  0
   19.0004    2.0042    5.0908 H   0  0  0  0  0  0  0  0  0  0  0  0
   19.9986    1.3303    6.4974 H   0  0  0  0  0  0  0  0  0  0  0  0
   21.3423    2.6996    4.2221 H   0  0  0  0  0  0  0  0  0  0  0  0
   19.2867    1.0606    2.9302 H   0  0  0  0  0  0  0  0  0  0  0  0
   21.0280    1.1020    2.8519 H   0  0  0  0  0  0  0  0  0  0  0  0
   21.1449   -1.4189    2.7725 H   0  0  0  0  0  0  0  0  0  0  0  0
   19.2620    0.9750    1.4110 H   0  0  0  0  0  0  0  0  0  0  0  0
   16.5466   -0.3129    0.4622 H   0  0  0  0  0  0  0  0  0  0  0  0
   15.2972   -0.0328   -1.6646 H   0  0  0  0  0  0  0  0  0  0  0  0
   16.8553   -1.1828   -4.8167 H   0  0  0  0  0  0  0  0  0  0  0  0
   15.6979   -0.9837   -6.9232 H   0  0  0  0  0  0  0  0  0  0  0  0
   14.4019    1.1184   -7.4831 H   0  0  0  0  0  0  0  0  0  0  0  0
   14.2981    2.9442   -5.8886 H   0  0  0  0  0  0  0  0  0  0  0  0
   18.9360    1.1490   -3.6500 H   0  0  0  0  0  0  0  0  0  0  0  0
  1  2  2  0
  2  3  1  0
  3  4  1  0
  4  5  2  0
  5  6  1  0
  6  7  2  0
  7  8  1  0
  7  9  1  0
  9 10  2  0
  2 11  1  0
 11 12  1  0
 12 13  1  0
 13 14  1  0
 14 15  1  0
 15 16  1  0
 15 17  1  0
 13 18  1  0
 18 19  1  0
 19 20  1  0
 20 21  2  0
 20 22  1  0
 22 23  1  0
 23 24  2  0
 24 25  1  0
 25 26  2  0
 26 27  1  0
 27 28  1  0
 28 29  2  0
 29 30  1  0
 30 31  2  0
 31 32  1  0
 32 33  2  0
 26 34  1  0
 34 35  2  0
 35 36  1  0
 10  4  1  0
 19 11  1  0
 35 23  1  0
 32 27  1  0
  3 37  1  0
  5 38  1  0
  6 39  1  0
  9 40  1  0
 11 41  1  6
 12 42  1  0
 12 43  1  0
 14 44  1  0
 14 45  1  0
 15 46  1  0
 18 47  1  0
 18 48  1  0
 19 49  1  6
 22 50  1  0
 24 51  1  0
 25 52  1  0
 28 53  1  0
 29 54  1  0
 30 55  1  0
 31 56  1  0
 34 57  1  0
M  END
>  <meeko>  (7) 
{"is_sidechain": [false], "free_energy": -7.023, "intermolecular_energy": -9.862, "internal_energy": -1.472}

$$$$
2xbv_ligand
     RDKit          3D

 57 60  0  0  0  0  0  0  0  0999 V2000
   14.5200    0.5130   -2.3520 O   0  0  0  0  0  0  0  0  0  0  0  0
   15.7020    0.8330   -2.4310 C   0  0  0  0  0  0  0  0  0  0  0  0
   16.4950    0.6800   -3.5490 N   0  0  0  0  0  0  0  0  0  0  0  0
   16.1550    0.1300   -4.7850 C   0  0  0  0  0  0  0  0  0  0  0  0
   15.9160    0.8740   -5.9340 C   0  0  0  0  0  0  0  0  0  0  0  0
   15.5790    0.2100   -7.1170 C   0  0  0  0  0  0  0  0  0  0  0  0
   15.4910   -1.1740   -7.1170 C   0  0  0  0  0  0  0  0  0  0  0  0
   15.0800   -2.0310   -8.5440 Cl  0  0  0  0  0  0  0  0  0  0  0  0
   15.7420   -1.8400   -5.9300 C   0  0  0  0  0  0  0  0  0  0  0  0
   16.0700   -1.2180   -4.7700 N   0  0  0  0  0  0  0  0  0  0  0  0
   16.4570    1.4580   -1.2650 C   0  0  1  0  0  0  0  0  0  0  0  0
   16.9920    0.4400   -0.2480 C   0  0  0  0  0  0  0  0  0  0  0  0
   18.4440    0.6800   -0.1740 N   0  0  0  0  0  0  0  0  0  0  0  0
   19.0370    0.3460    1.1360 C   0  0  0  0  0  0  0  0  0  0  0  0
   18.9180   -1.1190    1.5930 C   0  0  0  0  0  0  0  0  0  0  0  0
   17.8100   -1.2980    2.3570 F   0  0  0  0  0  0  0  0  0  0  0  0
   18.8160   -1.9560    0.5320 F   0  0  0  0  0  0  0  0  0  0  0  0
   18.6530    2.0700   -0.5610 C   0  0  0  0  0  0  0  0  0  0  0  0
   17.7070    2.2120   -1.7440 C   0  0  2  0  0  0  0  0  0  0  0  0
   17.4370    3.6720   -2.0620 C   0  0  0  0  0  0  0  0  0  0  0  0
   16.9750    4.4260   -1.2120 O   0  0  0  0  0  0  0  0  0  0  0  0
   17.6620    3.9820   -3.3910 N   0  0  0  0  0  0  0  0  0  0  0  0
   17.6120    5.2730   -3.9630 C   0  0  0  0  0  0  0  0  0  0  0  0
   18.8300    5.9150   -4.1930 C   0  0  0  0  0  0  0  0  0  0  0  0
   18.8690    7.1970   -4.7640 C   0  0  0  0  0  0  0  0  0  0  0  0
   17.6970    7.8870   -5.1120 C   0  0  0  0  0  0  0  0  0  0  0  0
   17.7300    9.2120   -5.6990 N   0  0  0  0  0  0  0  0  0  0  0  0
   17.9420    9.3820   -7.0700 C   0  0  0  0  0  0  0  0  0  0  0  0
   17.9910   10.5840   -7.6550 C   0  0  0  0  0  0  0  0  0  0  0  0
   17.8230   11.7740   -6.8720 C   0  0  0  0  0  0  0  0  0  0  0  0
   17.6140   11.6810   -5.5580 C   0  0  0  0  0  0  0  0  0  0  0  0
   17.5690   10.3550   -4.8750 C   0  0  0  0  0  0  0  0  0  0  0  0
   17.4260   10.3740   -3.6530 O   0  0  0  0  0  0  0  0  0  0  0  0
   16.4800    7.2460   -4.8390 C   0  0  0  0  0  0  0  0  0  0  0  0
   16.4410    5.9680   -4.2690 C   0  0  0  0  0  0  0  0  0  0  0  0
   15.2330    5.4810   -3.9530 F   0  0  0  0  0  0  0  0  0  0  0  0
   17.4560    1.0260   -3.5290 H   0  0  0  0  0  0  0  0  0  0  0  0
   15.9910    1.9712   -5.9129 H   0  0  0  0  0  0  0  0  0  0  0  0
   15.3857    0.7792   -8.0382 H   0  0  0  0  0  0  0  0  0  0  0  0
   15.6714   -2.9377   -5.9271 H   0  0  0  0  0  0  0  0  0  0  0  0
   15.7071    2.1136   -0.7983 H   0  0  0  0  0  0  0  0  0  0  0  0
   16.5259    0.5986    0.7357 H   0  0  0  0  0  0  0  0  0  0  0  0
   16.7649   -0.5935   -0.5484 H   0  0  0  0  0  0  0  0  0  0  0  0
   20.1073    0.5957    1.0912 H   0  0  0  0  0  0  0  0  0  0  0  0
   18.4613    0.9269    1.8716 H   0  0  0  0  0  0  0  0  0  0  0  0
   19.8267   -1.3449    2.1702 H   0  0  0  0  0  0  0  0  0  0  0  0
   18.3809    2.7573    0.2536 H   0  0  0  0  0  0  0  0  0  0  0  0
   19.6995    2.3131   -0.7971 H   0  0  0  0  0  0  0  0  0  0  0  0
   18.1031    1.8075   -2.6871 H   0  0  0  0  0  0  0  0  0  0  0  0
   17.6460    3.2060   -4.0420 H   0  0  0  0  0  0  0  0  0  0  0  0
   19.7698    5.4108   -3.9238 H   0  0  0  0  0  0  0  0  0  0  0  0
   19.8440    7.6736   -4.9435 H   0  0  0  0  0  0  0  0  0  0  0  0
   18.0745    8.4873   -7.6960 H   0  0  0  0  0  0  0  0  0  0  0  0
   18.1605   10.6600   -8.7392 H   0  0  0  0  0  0  0  0  0  0  0  0
   17.8665   12.7616   -7.3544 H   0  0  0  0  0  0  0  0  0  0  0  0
   17.4723   12.5980   -4.9673 H   0  0  0  0  0  0  0  0  0  0  0  0
   15.5362    7.7581   -5.0778 H   0  0  0  0  0  0  0  0  0  0  0  0
  1  2  2  0
  2  3  1  0
  3  4  1  0
  4  5  2  0
  5  6  1  0
  6  7  2  0
  7  8  1  0
  7  9  1  0
  9 10  2  0
  2 11  1  0
 11 12  1  0
 12 13  1  0
 13 14  1  0
 14 15  1  0
 15 16  1  0
 15 17  1  0
 13 18  1  0
 18 19  1  0
 19 20  1  0
 20 21  2  0
 20 22  1  0
 22 23  1  0
 23 24  2  0
 24 25  1  0
 25 26  2  0
 26 27  1  0
 27 28  1  0
 28 29  2  0
 29 30  1  0
 30 31  2  0
 31 32  1  0
 32 33  2  0
 26 34  1  0
 34 35  2  0
 35 36  1  0
 10  4  1  0
 19 11  1  0
 35 23  1  0
 32 27  1  0
  3 37  1  0
  5 38  1  0
  6 39  1  0
  9 40  1  0
 11 41  1  1
 12 42  1  0
 12 43  1  0
 14 44  1  0
 14 45  1  0
 15 46  1  0
 18 47  1  0
 18 48  1  0
 19 49  1  6
 22 50  1  0
 24 51  1  0
 25 52  1  0
 28 53  1  0
 29 54  1  0
 30 55  1  0
 31 56  1  0
 34 57  1  0
M  END
>  <meeko>  (8) 
{"is_sidechain": [false], "free_energy": -6.982, "intermolecular_energy": -9.767, "internal_energy": -1.509}

$$$$
2xbv_ligand
     RDKit          3D

 57 60  0  0  0  0  0  0  0  0999 V2000
   19.0410    2.4200   -0.9990 O   0  0  0  0  0  0  0  0  0  0  0  0
   18.1700    1.6800   -1.4450 C   0  0  0  0  0  0  0  0  0  0  0  0
   17.5680    0.6510   -0.7530 N   0  0  0  0  0  0  0  0  0  0  0  0
   17.8180    0.2190    0.5500 C   0  0  0  0  0  0  0  0  0  0  0  0
   17.5080    0.9480    1.6910 C   0  0  0  0  0  0  0  0  0  0  0  0
   17.8110    0.4120    2.9450 C   0  0  0  0  0  0  0  0  0  0  0  0
   18.4130   -0.8340    3.0230 C   0  0  0  0  0  0  0  0  0  0  0  0
   18.8030   -1.5310    4.5410 Cl  0  0  0  0  0  0  0  0  0  0  0  0
   18.6910   -1.4950    1.8400 C   0  0  0  0  0  0  0  0  0  0  0  0
   18.4080   -0.9950    0.6110 N   0  0  0  0  0  0  0  0  0  0  0  0
   17.6310    1.8180   -2.8630 C   0  0  1  0  0  0  0  0  0  0  0  0
   17.5470    0.4910   -3.6320 C   0  0  0  0  0  0  0  0  0  0  0  0
   16.1400    0.3640   -4.0500 N   0  0  0  0  0  0  0  0  0  0  0  0
   15.9570   -0.4000   -5.2990 C   0  0  0  0  0  0  0  0  0  0  0  0
   15.5680    0.4070   -6.5510 C   0  0  0  0  0  0  0  0  0  0  0  0
   16.5970    1.1940   -6.9560 F   0  0  0  0  0  0  0  0  0  0  0  0
   15.2550   -0.4110   -7.5840 F   0  0  0  0  0  0  0  0  0  0  0  0
   15.6070    1.7190   -4.1220 C   0  0  0  0  0  0  0  0  0  0  0  0
   16.1910    2.3530   -2.8690 C   0  0  2  0  0  0  0  0  0  0  0  0
   16.1190    3.8680   -2.9330 C   0  0  0  0  0  0  0  0  0  0  0  0
   15.1320    4.4690   -2.5220 O   0  0  0  0  0  0  0  0  0  0  0  0
   17.2010    4.4300   -3.5850 N   0  0  0  0  0  0  0  0  0  0  0  0
   17.4770    5.8110   -3.7000 C   0  0  0  0  0  0  0  0  0  0  0  0
   18.3960    6.3550   -2.8020 C   0  0  0  0  0  0  0  0  0  0  0  0
   18.7310    7.7170   -2.8530 C   0  0  0  0  0  0  0  0  0  0  0  0
   18.1500    8.5860   -3.7910 C   0  0  0  0  0  0  0  0  0  0  0  0
   18.4880    9.9950   -3.8460 N   0  0  0  0  0  0  0  0  0  0  0  0
   17.5680   10.9670   -3.4460 C   0  0  0  0  0  0  0  0  0  0  0  0
   17.8310   12.2790   -3.4900 C   0  0  0  0  0  0  0  0  0  0  0  0
   19.1020   12.7430   -3.9610 C   0  0  0  0  0  0  0  0  0  0  0  0
   20.0270   11.8660   -4.3550 C   0  0  0  0  0  0  0  0  0  0  0  0
   19.7580   10.3980   -4.3330 C   0  0  0  0  0  0  0  0  0  0  0  0
   20.6520    9.6720   -4.7660 O   0  0  0  0  0  0  0  0  0  0  0  0
   17.1990    8.0340   -4.6610 C   0  0  0  0  0  0  0  0  0  0  0  0
   16.8650    6.6760   -4.6090 C   0  0  0  0  0  0  0  0  0  0  0  0
   15.8750    6.2640   -5.4120 F   0  0  0  0  0  0  0  0  0  0  0  0
   16.8150    0.1240   -1.1980 H   0  0  0  0  0  0  0  0  0  0  0  0
   17.0298    1.9352    1.6082 H   0  0  0  0  0  0  0  0  0  0  0  0
   17.5742    0.9731    3.8611 H   0  0  0  0  0  0  0  0  0  0  0  0
   19.1694   -2.4837    1.8993 H   0  0  0  0  0  0  0  0  0  0  0  0
   18.3488    2.4998   -3.3425 H   0  0  0  0  0  0  0  0  0  0  0  0
   18.2081    0.5139   -4.5109 H   0  0  0  0  0  0  0  0  0  0  0  0
   17.8659   -0.3598   -3.0119 H   0  0  0  0  0  0  0  0  0  0  0  0
   16.9037   -0.9164   -5.5159 H   0  0  0  0  0  0  0  0  0  0  0  0
   15.1037   -1.0674   -5.1079 H   0  0  0  0  0  0  0  0  0  0  0  0
   14.6972    1.0194   -6.2742 H   0  0  0  0  0  0  0  0  0  0  0  0
   15.9509    2.2365   -5.0297 H   0  0  0  0  0  0  0  0  0  0  0  0
   14.5090    1.7626   -4.1717 H   0  0  0  0  0  0  0  0  0  0  0  0
   15.6487    2.1035   -1.9450 H   0  0  0  0  0  0  0  0  0  0  0  0
   17.7170    3.8200   -4.2090 H   0  0  0  0  0  0  0  0  0  0  0  0
   18.8637    5.7085   -2.0448 H   0  0  0  0  0  0  0  0  0  0  0  0
   19.4680    8.1143   -2.1396 H   0  0  0  0  0  0  0  0  0  0  0  0
   16.5840   10.6401   -3.0787 H   0  0  0  0  0  0  0  0  0  0  0  0
   17.0693   13.0025   -3.1637 H   0  0  0  0  0  0  0  0  0  0  0  0
   19.3151   13.8215   -3.9978 H   0  0  0  0  0  0  0  0  0  0  0  0
   21.0049   12.2311   -4.7021 H   0  0  0  0  0  0  0  0  0  0  0  0
   16.7051    8.6820   -5.4000 H   0  0  0  0  0  0  0  0  0  0  0  0
  1  2  2  0
  2  3  1  0
  3  4  1  0
  4  5  2  0
  5  6  1  0
  6  7  2  0
  7  8  1  0
  7  9  1  0
  9 10  2  0
  2 11  1  0
 11 12  1  0
 12 13  1  0
 13 14  1  0
 14 15  1  0
 15 16  1  0
 15 17  1  0
 13 18  1  0
 18 19  1  0
 19 20  1  0
 20 21  2  0
 20 22  1  0
 22 23  1  0
 23 24  2  0
 24 25  1  0
 25 26  2  0
 26 27  1  0
 27 28  1  0
 28 29  2  0
 29 30  1  0
 30 31  2  0
 31 32  1  0
 32 33  2  0
 26 34  1  0
 34 35  2  0
 35 36  1  0
 10  4  1  0
 19 11  1  0
 35 23  1  0
 32 27  1  0
  3 37  1  0
  5 38  1  0
  6 39  1  0
  9 40  1  0
 11 41  1  6
 12 42  1  0
 12 43  1  0
 14 44  1  0
 14 45  1  0
 15 46  1  0
 18 47  1  0
 18 48  1  0
 19 49  1  1
 22 50  1  0
 24 51  1  0
 25 52  1  0
 28 53  1  0
 29 54  1  0
 30 55  1  0
 31 56  1  0
 34 57  1  0
M  END
>  <meeko>  (9) 
{"is_sidechain": [false], "free_energy": -6.951, "intermolecular_energy": -9.717, "internal_energy": -1.514}

$$$$
