3d4z_ligand
     RDKit          3D

 27 28  0  0  0  0  0  0  0  0999 V2000
    5.7340   27.3550    2.0810 O   0  0  0  0  0  0  0  0  0  0  0  0
    5.1580   28.3790    2.8920 C   0  0  0  0  0  0  0  0  0  0  0  0
    3.7790   27.9460    3.4410 C   0  0  2  0  0  0  0  0  0  0  0  0
    2.7150   28.0700    2.3090 C   0  0  1  0  0  0  0  0  0  0  0  0
    2.9160   27.0440    1.3320 O   0  0  0  0  0  0  0  0  0  0  0  0
    1.2840   27.9550    2.8620 C   0  0  2  0  0  0  0  0  0  0  0  0
    0.3350   28.0480    1.7900 O   0  0  0  0  0  0  0  0  0  0  0  0
    1.0120   29.0940    3.8490 C   0  0  1  0  0  0  0  0  0  0  0  0
   -0.2430   28.9100    4.5070 O   0  0  0  0  0  0  0  0  0  0  0  0
    2.1290   29.1910    4.8450 C   0  0  0  0  0  0  0  0  0  0  0  0
    2.0930   29.7220    6.0730 N   0  0  0  0  0  0  0  0  0  0  0  0
    3.3000   29.5620    6.7050 C   0  0  0  0  0  0  0  0  0  0  0  0
    4.1110   28.9020    5.8240 C   0  0  0  0  0  0  0  0  0  0  0  0
    3.3700   28.7070    4.6610 N   0  0  0  0  0  0  0  0  0  0  0  0
    6.3460   26.8480    2.6480 H   0  0  0  0  0  0  0  0  0  0  0  0
    5.8308   28.5892    3.7365 H   0  0  0  0  0  0  0  0  0  0  0  0
    5.0206   29.2781    2.2734 H   0  0  0  0  0  0  0  0  0  0  0  0
    3.8568   26.8966    3.7615 H   0  0  0  0  0  0  0  0  0  0  0  0
    2.8368   29.0622    1.8500 H   0  0  0  0  0  0  0  0  0  0  0  0
    2.0450   26.6510    1.1290 H   0  0  0  0  0  0  0  0  0  0  0  0
    1.1839   26.9844    3.3699 H   0  0  0  0  0  0  0  0  0  0  0  0
    0.1530   27.1390    1.4760 H   0  0  0  0  0  0  0  0  0  0  0  0
    0.9604   30.0385    3.2876 H   0  0  0  0  0  0  0  0  0  0  0  0
   -0.0540   28.3690    5.3020 H   0  0  0  0  0  0  0  0  0  0  0  0
    1.2440   30.1180    6.4710 H   0  0  0  0  0  0  0  0  0  0  0  0
    3.5631   29.8979    7.7189 H   0  0  0  0  0  0  0  0  0  0  0  0
    5.1497   28.5856    6.0001 H   0  0  0  0  0  0  0  0  0  0  0  0
  1  2  1  0
  2  3  1  0
  3  4  1  0
  4  5  1  0
  4  6  1  0
  6  7  1  0
  6  8  1  0
  8  9  1  0
  8 10  1  0
 10 11  2  0
 11 12  1  0
 12 13  2  0
 13 14  1  0
 14  3  1  0
 14 10  1  0
  1 15  1  0
  2 16  1  0
  2 17  1  0
  3 18  1  1
  4 19  1  6
  5 20  1  0
  6 21  1  1
  7 22  1  0
  8 23  1  6
  9 24  1  0
 11 25  1  0
 12 26  1  0
 13 27  1  0
M  CHG  1  11   1
M  END
>  <meeko>  (1) 
{"is_sidechain": [false], "free_energy": -6.079, "intermolecular_energy": -7.145, "internal_energy": -0.255}

$$$$
3d4z_ligand
     RDKit          3D

 27 28  0  0  0  0  0  0  0  0999 V2000
    0.3950   28.0250    2.4180 O   0  0  0  0  0  0  0  0  0  0  0  0
    1.1270   27.8100    3.6240 C   0  0  0  0  0  0  0  0  0  0  0  0
    2.4200   28.6590    3.6510 C   0  0  2  0  0  0  0  0  0  0  0  0
    3.5410   27.9090    2.8700 C   0  0  1  0  0  0  0  0  0  0  0  0
    3.2660   27.9370    1.4670 O   0  0  0  0  0  0  0  0  0  0  0  0
    4.9220   28.5410    3.1170 C   0  0  2  0  0  0  0  0  0  0  0  0
    5.9240   27.8410    2.3650 O   0  0  0  0  0  0  0  0  0  0  0  0
    5.2810   28.4480    4.6030 C   0  0  1  0  0  0  0  0  0  0  0  0
    6.4740   29.1810    4.8870 O   0  0  0  0  0  0  0  0  0  0  0  0
    4.1380   28.9410    5.4420 C   0  0  0  0  0  0  0  0  0  0  0  0
    4.1800   29.4200    6.6900 N   0  0  0  0  0  0  0  0  0  0  0  0
    2.9360   29.8320    7.0940 C   0  0  0  0  0  0  0  0  0  0  0  0
    2.0940   29.5960    6.0420 C   0  0  0  0  0  0  0  0  0  0  0  0
    2.8590   29.0130    5.0350 N   0  0  0  0  0  0  0  0  0  0  0  0
    0.5480   27.2500    1.8440 H   0  0  0  0  0  0  0  0  0  0  0  0
    0.4965   28.0887    4.4812 H   0  0  0  0  0  0  0  0  0  0  0  0
    1.4062   26.7474    3.6779 H   0  0  0  0  0  0  0  0  0  0  0  0
    2.2056   29.6186    3.1579 H   0  0  0  0  0  0  0  0  0  0  0  0
    3.5570   26.8710    3.2338 H   0  0  0  0  0  0  0  0  0  0  0  0
    3.4990   28.8260    1.1350 H   0  0  0  0  0  0  0  0  0  0  0  0
    4.8835   29.5946    2.8032 H   0  0  0  0  0  0  0  0  0  0  0  0
    5.9810   26.9320    2.7240 H   0  0  0  0  0  0  0  0  0  0  0  0
    5.4690   27.3931    4.8515 H   0  0  0  0  0  0  0  0  0  0  0  0
    6.2920   30.1070    4.6230 H   0  0  0  0  0  0  0  0  0  0  0  0
    5.0520   29.5140    7.2100 H   0  0  0  0  0  0  0  0  0  0  0  0
    2.6687   30.2655    8.0690 H   0  0  0  0  0  0  0  0  0  0  0  0
    1.0186   29.8232    5.9996 H   0  0  0  0  0  0  0  0  0  0  0  0
  1  2  1  0
  2  3  1  0
  3  4  1  0
  4  5  1  0
  4  6  1  0
  6  7  1  0
  6  8  1  0
  8  9  1  0
  8 10  1  0
 10 11  2  0
 11 12  1  0
 12 13  2  0
 13 14  1  0
 14  3  1  0
 14 10  1  0
  1 15  1  0
  2 16  1  0
  2 17  1  0
  3 18  1  6
  4 19  1  1
  5 20  1  0
  6 21  1  6
  7 22  1  0
  8 23  1  1
  9 24  1  0
 11 25  1  0
 12 26  1  0
 13 27  1  0
M  CHG  1  11   1
M  END
>  <meeko>  (2) 
{"is_sidechain": [false], "free_energy": -5.83, "intermolecular_energy": -6.858, "internal_energy": -0.25}

$$$$
3d4z_ligand
     RDKit          3D

 27 28  0  0  0  0  0  0  0  0999 V2000
    4.9020   29.4430    6.2340 O   0  0  0  0  0  0  0  0  0  0  0  0
    3.8070   28.5630    5.9830 C   0  0  0  0  0  0  0  0  0  0  0  0
    2.9610   29.0530    4.7850 C   0  0  2  0  0  0  0  0  0  0  0  0
    1.4500   28.8400    5.1040 C   0  0  1  0  0  0  0  0  0  0  0  0
    1.0220   29.7760    6.0980 O   0  0  0  0  0  0  0  0  0  0  0  0
    0.5770   29.0150    3.8500 C   0  0  2  0  0  0  0  0  0  0  0  0
   -0.8070   28.8370    4.1860 O   0  0  0  0  0  0  0  0  0  0  0  0
    0.9570   27.9680    2.7980 C   0  0  1  0  0  0  0  0  0  0  0  0
    0.2860   28.2180    1.5620 O   0  0  0  0  0  0  0  0  0  0  0  0
    2.4450   27.9480    2.6040 C   0  0  0  0  0  0  0  0  0  0  0  0
    3.1300   27.5260    1.5350 N   0  0  0  0  0  0  0  0  0  0  0  0
    4.4750   27.7300    1.7100 C   0  0  0  0  0  0  0  0  0  0  0  0
    4.6190   28.3050    2.9430 C   0  0  0  0  0  0  0  0  0  0  0  0
    3.3440   28.4040    3.4940 N   0  0  0  0  0  0  0  0  0  0  0  0
    5.1370   29.3520    7.1770 H   0  0  0  0  0  0  0  0  0  0  0  0
    4.1971   27.5589    5.7603 H   0  0  0  0  0  0  0  0  0  0  0  0
    3.1660   28.5399    6.8766 H   0  0  0  0  0  0  0  0  0  0  0  0
    3.1615   30.1255    4.6451 H   0  0  0  0  0  0  0  0  0  0  0  0
    1.3334   27.8107    5.4741 H   0  0  0  0  0  0  0  0  0  0  0  0
    1.7680   30.3800    6.2800 H   0  0  0  0  0  0  0  0  0  0  0  0
    0.7403   30.0271    3.4513 H   0  0  0  0  0  0  0  0  0  0  0  0
   -0.9840   27.8750    4.2080 H   0  0  0  0  0  0  0  0  0  0  0  0
    0.6367   26.9793    3.1583 H   0  0  0  0  0  0  0  0  0  0  0  0
   -0.0240   29.1460    1.6060 H   0  0  0  0  0  0  0  0  0  0  0  0
    2.6700   27.1730    0.6980 H   0  0  0  0  0  0  0  0  0  0  0  0
    5.2778   27.4809    1.0004 H   0  0  0  0  0  0  0  0  0  0  0  0
    5.5615   28.6274    3.4097 H   0  0  0  0  0  0  0  0  0  0  0  0
  1  2  1  0
  2  3  1  0
  3  4  1  0
  4  5  1  0
  4  6  1  0
  6  7  1  0
  6  8  1  0
  8  9  1  0
  8 10  1  0
 10 11  2  0
 11 12  1  0
 12 13  2  0
 13 14  1  0
 14  3  1  0
 14 10  1  0
  1 15  1  0
  2 16  1  0
  2 17  1  0
  3 18  1  6
  4 19  1  1
  5 20  1  0
  6 21  1  6
  7 22  1  0
  8 23  1  1
  9 24  1  0
 11 25  1  0
 12 26  1  0
 13 27  1  0
M  CHG  1  11   1
M  END
>  <meeko>  (3) 
{"is_sidechain": [false], "free_energy": -5.743, "intermolecular_energy": -6.941, "internal_energy": -0.064}

$$$$
3d4z_ligand
     RDKit          3D

 27 28  0  0  0  0  0  0  0  0999 V2000
    3.8160   27.2250    0.5600 O   0  0  0  0  0  0  0  0  0  0  0  0
    3.2460   27.0960    1.8630 C   0  0  0  0  0  0  0  0  0  0  0  0
    3.5520   28.3380    2.7320 C   0  0  2  0  0  0  0  0  0  0  0  0
    4.9250   28.1390    3.4420 C   0  0  1  0  0  0  0  0  0  0  0  0
    5.9890   28.2440    2.4930 O   0  0  0  0  0  0  0  0  0  0  0  0
    5.1440   29.1840    4.5510 C   0  0  2  0  0  0  0  0  0  0  0  0
    6.4260   28.9860    5.1640 O   0  0  0  0  0  0  0  0  0  0  0  0
    4.0650   29.0390    5.6270 C   0  0  1  0  0  0  0  0  0  0  0  0
    4.1400   30.1060    6.5740 O   0  0  0  0  0  0  0  0  0  0  0  0
    2.7060   28.9830    4.9920 C   0  0  0  0  0  0  0  0  0  0  0  0
    1.5260   29.2850    5.5450 N   0  0  0  0  0  0  0  0  0  0  0  0
    0.5160   29.1740    4.6240 C   0  0  0  0  0  0  0  0  0  0  0  0
    1.1060   28.7880    3.4520 C   0  0  0  0  0  0  0  0  0  0  0  0
    2.4670   28.6470    3.7120 N   0  0  0  0  0  0  0  0  0  0  0  0
    3.1010   27.5030   -0.0430 H   0  0  0  0  0  0  0  0  0  0  0  0
    2.1558   26.9839    1.7684 H   0  0  0  0  0  0  0  0  0  0  0  0
    3.6856   26.2130    2.3499 H   0  0  0  0  0  0  0  0  0  0  0  0
    3.6039   29.2133    2.0678 H   0  0  0  0  0  0  0  0  0  0  0  0
    4.9187   27.1372    3.8963 H   0  0  0  0  0  0  0  0  0  0  0  0
    6.5040   29.0460    2.7090 H   0  0  0  0  0  0  0  0  0  0  0  0
    5.0930   30.1862    4.1004 H   0  0  0  0  0  0  0  0  0  0  0  0
    7.0940   29.4260    4.6000 H   0  0  0  0  0  0  0  0  0  0  0  0
    4.2382   28.0976    6.1690 H   0  0  0  0  0  0  0  0  0  0  0  0
    4.5400   30.8620    6.0970 H   0  0  0  0  0  0  0  0  0  0  0  0
    1.4430   29.6160    6.5050 H   0  0  0  0  0  0  0  0  0  0  0  0
   -0.5550   29.3586    4.7939 H   0  0  0  0  0  0  0  0  0  0  0  0
    0.6021   28.6209    2.4886 H   0  0  0  0  0  0  0  0  0  0  0  0
  1  2  1  0
  2  3  1  0
  3  4  1  0
  4  5  1  0
  4  6  1  0
  6  7  1  0
  6  8  1  0
  8  9  1  0
  8 10  1  0
 10 11  2  0
 11 12  1  0
 12 13  2  0
 13 14  1  0
 14  3  1  0
 14 10  1  0
  1 15  1  0
  2 16  1  0
  2 17  1  0
  3 18  1  6
  4 19  1  1
  5 20  1  0
  6 21  1  6
  7 22  1  0
  8 23  1  1
  9 24  1  0
 11 25  1  0
 12 26  1  0
 13 27  1  0
M  CHG  1  11   1
M  END
>  <meeko>  (4) 
{"is_sidechain": [false], "free_energy": -5.646, "intermolecular_energy": -6.651, "internal_energy": -0.241}

$$$$
3d4z_ligand
     RDKit          3D

 27 28  0  0  0  0  0  0  0  0999 V2000
    1.1970   21.3750   -3.9730 O   0  0  0  0  0  0  0  0  0  0  0  0
    1.6650   21.5810   -2.6400 C   0  0  0  0  0  0  0  0  0  0  0  0
    1.7700   23.0890   -2.3130 C   0  0  2  0  0  0  0  0  0  0  0  0
    1.3430   23.9160   -3.5630 C   0  0  1  0  0  0  0  0  0  0  0  0
   -0.0700   23.8120   -3.7610 O   0  0  0  0  0  0  0  0  0  0  0  0
    1.7160   25.4010   -3.4140 C   0  0  2  0  0  0  0  0  0  0  0  0
    1.2850   26.1330   -4.5710 O   0  0  0  0  0  0  0  0  0  0  0  0
    3.2340   25.5490   -3.2850 C   0  0  1  0  0  0  0  0  0  0  0  0
    3.5920   26.8950   -2.9700 O   0  0  0  0  0  0  0  0  0  0  0  0
    3.7590   24.5990   -2.2480 C   0  0  0  0  0  0  0  0  0  0  0  0
    4.8920   24.6950   -1.5440 N   0  0  0  0  0  0  0  0  0  0  0  0
    4.9920   23.6650   -0.6430 C   0  0  0  0  0  0  0  0  0  0  0  0
    3.8660   22.9050   -0.8040 C   0  0  0  0  0  0  0  0  0  0  0  0
    3.1270   23.4890   -1.8300 N   0  0  0  0  0  0  0  0  0  0  0  0
    1.0410   20.4180   -4.0800 H   0  0  0  0  0  0  0  0  0  0  0  0
    0.9638   21.1088   -1.9362 H   0  0  0  0  0  0  0  0  0  0  0  0
    2.6656   21.1333   -2.5481 H   0  0  0  0  0  0  0  0  0  0  0  0
    1.0860   23.3027   -1.4785 H   0  0  0  0  0  0  0  0  0  0  0  0
    1.8801   23.5035   -4.4298 H   0  0  0  0  0  0  0  0  0  0  0  0
   -0.2510   22.9420   -4.1680 H   0  0  0  0  0  0  0  0  0  0  0  0
    1.2222   25.7954   -2.5137 H   0  0  0  0  0  0  0  0  0  0  0  0
    0.7710   26.9040   -4.2570 H   0  0  0  0  0  0  0  0  0  0  0  0
    3.6922   25.2995   -4.2534 H   0  0  0  0  0  0  0  0  0  0  0  0
    4.0090   27.2600   -3.7770 H   0  0  0  0  0  0  0  0  0  0  0  0
    5.5330   25.4810   -1.6440 H   0  0  0  0  0  0  0  0  0  0  0  0
    5.8132   23.4862    0.0667 H   0  0  0  0  0  0  0  0  0  0  0  0
    3.5959   22.0048   -0.2324 H   0  0  0  0  0  0  0  0  0  0  0  0
  1  2  1  0
  2  3  1  0
  3  4  1  0
  4  5  1  0
  4  6  1  0
  6  7  1  0
  6  8  1  0
  8  9  1  0
  8 10  1  0
 10 11  2  0
 11 12  1  0
 12 13  2  0
 13 14  1  0
 14  3  1  0
 14 10  1  0
  1 15  1  0
  2 16  1  0
  2 17  1  0
  3 18  1  1
  4 19  1  6
  5 20  1  0
  6 21  1  1
  7 22  1  0
  8 23  1  6
  9 24  1  0
 11 25  1  0
 12 26  1  0
 13 27  1  0
M  CHG  1  11   1
M  END
>  <meeko>  (5) 
{"is_sidechain": [false], "free_energy": -5.624, "intermolecular_energy": -6.628, "internal_energy": -0.238}

$$$$
3d4z_ligand
     RDKit          3D

 27 28  0  0  0  0  0  0  0  0999 V2000
   -0.2610   28.2660    3.5670 O   0  0  0  0  0  0  0  0  0  0  0  0
    0.9700   28.6150    2.9320 C   0  0  0  0  0  0  0  0  0  0  0  0
    2.1820   28.1920    3.7950 C   0  0  2  0  0  0  0  0  0  0  0  0
    2.4850   29.3120    4.8350 C   0  0  1  0  0  0  0  0  0  0  0  0
    1.4700   29.3340    5.8430 O   0  0  0  0  0  0  0  0  0  0  0  0
    3.8510   29.1020    5.5110 C   0  0  2  0  0  0  0  0  0  0  0  0
    4.0840   30.1360    6.4790 O   0  0  0  0  0  0  0  0  0  0  0  0
    4.9670   29.1590    4.4640 C   0  0  1  0  0  0  0  0  0  0  0  0
    6.2230   28.7920    5.0360 O   0  0  0  0  0  0  0  0  0  0  0  0
    4.6290   28.2720    3.3010 C   0  0  0  0  0  0  0  0  0  0  0  0
    5.4690   27.7130    2.4220 N   0  0  0  0  0  0  0  0  0  0  0  0
    4.7860   26.9120    1.5420 C   0  0  0  0  0  0  0  0  0  0  0  0
    3.4690   26.9830    1.9010 C   0  0  0  0  0  0  0  0  0  0  0  0
    3.3900   27.8590    2.9810 N   0  0  0  0  0  0  0  0  0  0  0  0
   -0.1200   27.4140    4.0230 H   0  0  0  0  0  0  0  0  0  0  0  0
    1.0281   28.1074    1.9578 H   0  0  0  0  0  0  0  0  0  0  0  0
    0.9983   29.7069    2.8017 H   0  0  0  0  0  0  0  0  0  0  0  0
    1.9171   27.2627    4.3206 H   0  0  0  0  0  0  0  0  0  0  0  0
    2.5033   30.2686    4.2923 H   0  0  0  0  0  0  0  0  0  0  0  0
    0.6450   29.6550    5.4290 H   0  0  0  0  0  0  0  0  0  0  0  0
    3.8474   28.1189    6.0044 H   0  0  0  0  0  0  0  0  0  0  0  0
    4.5390   29.7280    7.2430 H   0  0  0  0  0  0  0  0  0  0  0  0
    5.0541   30.1941    4.1020 H   0  0  0  0  0  0  0  0  0  0  0  0
    6.6110   29.6190    5.3900 H   0  0  0  0  0  0  0  0  0  0  0  0
    6.4780   27.8370    2.4770 H   0  0  0  0  0  0  0  0  0  0  0  0
    5.2131   26.3289    0.7128 H   0  0  0  0  0  0  0  0  0  0  0  0
    2.6314   26.4500    1.4274 H   0  0  0  0  0  0  0  0  0  0  0  0
  1  2  1  0
  2  3  1  0
  3  4  1  0
  4  5  1  0
  4  6  1  0
  6  7  1  0
  6  8  1  0
  8  9  1  0
  8 10  1  0
 10 11  2  0
 11 12  1  0
 12 13  2  0
 13 14  1  0
 14  3  1  0
 14 10  1  0
  1 15  1  0
  2 16  1  0
  2 17  1  0
  3 18  1  1
  4 19  1  6
  5 20  1  0
  6 21  1  1
  7 22  1  0
  8 23  1  6
  9 24  1  0
 11 25  1  0
 12 26  1  0
 13 27  1  0
M  CHG  1  11   1
M  END
>  <meeko>  (6) 
{"is_sidechain": [false], "free_energy": -5.53, "intermolecular_energy": -6.51, "internal_energy": -0.246}

$$$$
3d4z_ligand
     RDKit          3D

 27 28  0  0  0  0  0  0  0  0999 V2000
    2.6480   27.2160   -1.7250 O   0  0  0  0  0  0  0  0  0  0  0  0
    3.3870   26.0910   -1.2490 C   0  0  0  0  0  0  0  0  0  0  0  0
    3.1790   24.8600   -2.1630 C   0  0  2  0  0  0  0  0  0  0  0  0
    2.4910   25.3150   -3.4850 C   0  0  1  0  0  0  0  0  0  0  0  0
    3.4130   26.0560   -4.2890 O   0  0  0  0  0  0  0  0  0  0  0  0
    1.9780   24.1130   -4.2980 C   0  0  2  0  0  0  0  0  0  0  0  0
    1.3740   24.5680   -5.5180 O   0  0  0  0  0  0  0  0  0  0  0  0
    0.9250   23.3470   -3.4930 C   0  0  1  0  0  0  0  0  0  0  0  0
    0.5630   22.1320   -4.1500 O   0  0  0  0  0  0  0  0  0  0  0  0
    1.4320   23.0750   -2.1070 C   0  0  0  0  0  0  0  0  0  0  0  0
    1.0440   22.1130   -1.2630 N   0  0  0  0  0  0  0  0  0  0  0  0
    1.7900   22.1470   -0.1130 C   0  0  0  0  0  0  0  0  0  0  0  0
    2.6770   23.1770   -0.2600 C   0  0  0  0  0  0  0  0  0  0  0  0
    2.4160   23.7610   -1.4980 N   0  0  0  0  0  0  0  0  0  0  0  0
    3.2630   27.7660   -2.2470 H   0  0  0  0  0  0  0  0  0  0  0  0
    4.4567   26.3465   -1.2286 H   0  0  0  0  0  0  0  0  0  0  0  0
    3.0297   25.8405   -0.2393 H   0  0  0  0  0  0  0  0  0  0  0  0
    4.1677   24.4344   -2.3896 H   0  0  0  0  0  0  0  0  0  0  0  0
    1.6337   25.9468   -3.2095 H   0  0  0  0  0  0  0  0  0  0  0  0
    2.9020   26.7180   -4.7950 H   0  0  0  0  0  0  0  0  0  0  0  0
    2.8309   23.4556   -4.5225 H   0  0  0  0  0  0  0  0  0  0  0  0
    0.9970   23.7860   -5.9700 H   0  0  0  0  0  0  0  0  0  0  0  0
    0.0211   23.9695   -3.4200 H   0  0  0  0  0  0  0  0  0  0  0  0
    1.4040   21.7100   -4.4210 H   0  0  0  0  0  0  0  0  0  0  0  0
    0.3340   21.4240   -1.5090 H   0  0  0  0  0  0  0  0  0  0  0  0
    1.6939   21.4785    0.7552 H   0  0  0  0  0  0  0  0  0  0  0  0
    3.4486   23.4855    0.4607 H   0  0  0  0  0  0  0  0  0  0  0  0
  1  2  1  0
  2  3  1  0
  3  4  1  0
  4  5  1  0
  4  6  1  0
  6  7  1  0
  6  8  1  0
  8  9  1  0
  8 10  1  0
 10 11  2  0
 11 12  1  0
 12 13  2  0
 13 14  1  0
 14  3  1  0
 14 10  1  0
  1 15  1  0
  2 16  1  0
  2 17  1  0
  3 18  1  6
  4 19  1  1
  5 20  1  0
  6 21  1  6
  7 22  1  0
  8 23  1  1
  9 24  1  0
 11 25  1  0
 12 26  1  0
 13 27  1  0
M  CHG  1  11   1
M  END
>  <meeko>  (7) 
{"is_sidechain": [false], "free_energy": -5.488, "intermolecular_energy": -6.438, "internal_energy": -0.268}

$$$$
3d4z_ligand
     RDKit          3D

 27 28  0  0  0  0  0  0  0  0999 V2000
    2.9660   27.1940   -5.0370 O   0  0  0  0  0  0  0  0  0  0  0  0
    2.4280   26.7630   -3.7870 C   0  0  0  0  0  0  0  0  0  0  0  0
    2.6970   25.2590   -3.5530 C   0  0  2  0  0  0  0  0  0  0  0  0
    1.5240   24.4290   -4.1560 C   0  0  1  0  0  0  0  0  0  0  0  0
    1.5830   24.4630   -5.5850 O   0  0  0  0  0  0  0  0  0  0  0  0
    1.5710   22.9620   -3.6920 C   0  0  2  0  0  0  0  0  0  0  0  0
    0.4940   22.2250   -4.2860 O   0  0  0  0  0  0  0  0  0  0  0  0
    1.4250   22.8910   -2.1690 C   0  0  1  0  0  0  0  0  0  0  0  0
    1.6420   21.5600   -1.6970 O   0  0  0  0  0  0  0  0  0  0  0  0
    2.3730   23.8520   -1.5140 C   0  0  0  0  0  0  0  0  0  0  0  0
    2.8630   23.8040   -0.2700 N   0  0  0  0  0  0  0  0  0  0  0  0
    3.7550   24.8250   -0.0610 C   0  0  0  0  0  0  0  0  0  0  0  0
    3.8140   25.5290   -1.2320 C   0  0  0  0  0  0  0  0  0  0  0  0
    2.9230   24.9220   -2.1140 N   0  0  0  0  0  0  0  0  0  0  0  0
    2.8650   26.4540   -5.6660 H   0  0  0  0  0  0  0  0  0  0  0  0
    2.8951   27.3416   -2.9764 H   0  0  0  0  0  0  0  0  0  0  0  0
    1.3401   26.9248   -3.8011 H   0  0  0  0  0  0  0  0  0  0  0  0
    3.6348   24.9990   -4.0658 H   0  0  0  0  0  0  0  0  0  0  0  0
    0.5853   24.8806   -3.8025 H   0  0  0  0  0  0  0  0  0  0  0  0
    2.2630   25.1160   -5.8400 H   0  0  0  0  0  0  0  0  0  0  0  0
    2.5352   22.5303   -3.9984 H   0  0  0  0  0  0  0  0  0  0  0  0
    0.8760   21.4220   -4.6960 H   0  0  0  0  0  0  0  0  0  0  0  0
    0.3968   23.1773   -1.9029 H   0  0  0  0  0  0  0  0  0  0  0  0
    1.3830   20.9670   -2.4320 H   0  0  0  0  0  0  0  0  0  0  0  0
    2.6330   23.0540    0.3790 H   0  0  0  0  0  0  0  0  0  0  0  0
    4.3118   25.0355    0.8640 H   0  0  0  0  0  0  0  0  0  0  0  0
    4.4444   26.4066   -1.4379 H   0  0  0  0  0  0  0  0  0  0  0  0
  1  2  1  0
  2  3  1  0
  3  4  1  0
  4  5  1  0
  4  6  1  0
  6  7  1  0
  6  8  1  0
  8  9  1  0
  8 10  1  0
 10 11  2  0
 11 12  1  0
 12 13  2  0
 13 14  1  0
 14  3  1  0
 14 10  1  0
  1 15  1  0
  2 16  1  0
  2 17  1  0
  3 18  1  6
  4 19  1  6
  5 20  1  0
  6 21  1  1
  7 22  1  0
  8 23  1  6
  9 24  1  0
 11 25  1  0
 12 26  1  0
 13 27  1  0
M  CHG  1  11   1
M  END
>  <meeko>  (8) 
{"is_sidechain": [false], "free_energy": -5.434, "intermolecular_energy": -6.409, "internal_energy": -0.233}

$$$$
3d4z_ligand
     RDKit          3D

 27 28  0  0  0  0  0  0  0  0999 V2000
    1.0860   22.3550   -0.4110 O   0  0  0  0  0  0  0  0  0  0  0  0
    2.1160   22.5700   -1.3750 C   0  0  0  0  0  0  0  0  0  0  0  0
    3.0950   23.6740   -0.9100 C   0  0  2  0  0  0  0  0  0  0  0  0
    2.8630   23.9580    0.6050 C   0  0  1  0  0  0  0  0  0  0  0  0
    3.3460   22.8640    1.3890 O   0  0  0  0  0  0  0  0  0  0  0  0
    3.5770   25.2450    1.0550 C   0  0  2  0  0  0  0  0  0  0  0  0
    3.3620   25.4600    2.4570 O   0  0  0  0  0  0  0  0  0  0  0  0
    3.0180   26.4480    0.2890 C   0  0  1  0  0  0  0  0  0  0  0  0
    3.7820   27.6240    0.5590 O   0  0  0  0  0  0  0  0  0  0  0  0
    2.9880   26.1550   -1.1820 C   0  0  0  0  0  0  0  0  0  0  0  0
    2.9890   27.0290   -2.1950 N   0  0  0  0  0  0  0  0  0  0  0  0
    3.0250   26.3740   -3.4000 C   0  0  0  0  0  0  0  0  0  0  0  0
    3.0490   25.0380   -3.1100 C   0  0  0  0  0  0  0  0  0  0  0  0
    2.9950   24.9240   -1.7230 N   0  0  0  0  0  0  0  0  0  0  0  0
    0.5230   21.6310   -0.7450 H   0  0  0  0  0  0  0  0  0  0  0  0
    2.6739   21.6330   -1.5192 H   0  0  0  0  0  0  0  0  0  0  0  0
    1.6495   22.8922   -2.3176 H   0  0  0  0  0  0  0  0  0  0  0  0
    4.1200   23.3056   -1.0638 H   0  0  0  0  0  0  0  0  0  0  0  0
    1.7806   24.0844    0.7545 H   0  0  0  0  0  0  0  0  0  0  0  0
    2.7140   22.7190    2.1200 H   0  0  0  0  0  0  0  0  0  0  0  0
    4.6526   25.1362    0.8519 H   0  0  0  0  0  0  0  0  0  0  0  0
    4.2120   25.7510    2.8440 H   0  0  0  0  0  0  0  0  0  0  0  0
    1.9885   26.6319    0.6300 H   0  0  0  0  0  0  0  0  0  0  0  0
    3.3240   28.3560    0.0950 H   0  0  0  0  0  0  0  0  0  0  0  0
    3.0290   28.0360   -2.0470 H   0  0  0  0  0  0  0  0  0  0  0  0
    3.0330   26.8323   -4.4000 H   0  0  0  0  0  0  0  0  0  0  0  0
    3.1010   24.2113   -3.8338 H   0  0  0  0  0  0  0  0  0  0  0  0
  1  2  1  0
  2  3  1  0
  3  4  1  0
  4  5  1  0
  4  6  1  0
  6  7  1  0
  6  8  1  0
  8  9  1  0
  8 10  1  0
 10 11  2  0
 11 12  1  0
 12 13  2  0
 13 14  1  0
 14  3  1  0
 14 10  1  0
  1 15  1  0
  2 16  1  0
  2 17  1  0
  3 18  1  1
  4 19  1  6
  5 20  1  0
  6 21  1  1
  7 22  1  0
  8 23  1  1
  9 24  1  0
 11 25  1  0
 12 26  1  0
 13 27  1  0
M  CHG  1  11   1
M  END
>  <meeko>  (9) 
{"is_sidechain": [false], "free_energy": -5.423, "intermolecular_energy": -6.361, "internal_energy": -0.269}

$$$$
